Circuit: *** SPICE deck for cell layout_inversor{lay} from library inversor

Error on line 27 : mnmos@0 y a#0nmos@0_poly-right gnd gnd n l=0.4u w=1u as=5.96p ad=2.76p ps=17.2u pd=9.2u
	 Unable to find definition of model "w"
	
	* Error:  No unlabeled parameter permitted for MOSFET's
Error on line 28 : mpmos@0 y a#2pmos@0_poly-left vdd vdd p l=0.4u w=2u as=7.56p ad=2.76p ps=21.2u pd=9.2u
	 Unable to find definition of model "w"
	
	* Error:  No unlabeled parameter permitted for MOSFET's
Direct Newton iteration for .op point succeeded.

Date: Tue Jun 09 00:06:38 2020
Total elapsed time: 13.498 seconds.

tnom = 27
temp = 27
method = modified trap
totiter = 2864
traniter = 2845
tranpoints = 1364
accept = 1304
rejected = 60
matrix size = 11
fillins = 6
solver = Normal
Matrix Compiler1: 734 bytes object code size  0.8/0.7/[0.5]
Matrix Compiler2: off  [0.6]/0.8/0.7


