
Circuit: * Operational Amplifier.  AC Analysis.

Warning: Pd = 0 is less than W.
Warning: Ps = 0 is less than W.
Warning: Pd = 0 is less than W.
Warning: Ps = 0 is less than W.
Warning: Pd = 0 is less than W.
Warning: Ps = 0 is less than W.
Circuit: * Operational Amplifier.  AC Analysis.
Date: Tue Apr 14 21:22:57  1998


CPU time since last call: 0.380 seconds.

Total CPU time: 0.380 seconds.

Current dynamic memory usage = 155648,
Dynamic memory limit = 2147368959.

