
Circuit: ***  For BSIM3V3  general purpose check (Id-Vg) for Pmosfet***

Warning: Pd = 0 is less than W.
Warning: Ps = 0 is less than W.
Circuit: ***  For BSIM3V3  general purpose check (Id-Vg) for Pmosfet***
Date: Tue Apr 14 21:15:08  1998


         ***  For BSIM3V3  general purpose check (Id-Vg) for Pmosfet***
         DC transfer characteristic  Tue Apr 14 21:15:08  1998
--------------------------------------------------------------------------------
Index   sweep           v(2)            vds#branch      
--------------------------------------------------------------------------------
0	0.000000e+00	-1.000000e-01	2.004537e-13	
1	-5.000000e-02	-1.000000e-01	2.010083e-13	
2	-1.000000e-01	-1.000000e-01	2.052304e-13	
3	-1.500000e-01	-1.000000e-01	2.177590e-13	
4	-2.000000e-01	-1.000000e-01	2.602954e-13	
5	-2.500000e-01	-1.000000e-01	4.047017e-13	
6	-3.000000e-01	-1.000000e-01	8.948734e-13	
7	-3.500000e-01	-1.000000e-01	2.558265e-12	
8	-4.000000e-01	-1.000000e-01	8.200191e-12	
9	-4.500000e-01	-1.000000e-01	2.731938e-11	
10	-5.000000e-01	-1.000000e-01	9.200333e-11	
11	-5.500000e-01	-1.000000e-01	3.101890e-10	
12	-6.000000e-01	-1.000000e-01	1.042221e-09	
13	-6.500000e-01	-1.000000e-01	3.475336e-09	
14	-7.000000e-01	-1.000000e-01	1.143645e-08	
15	-7.500000e-01	-1.000000e-01	3.686130e-08	
16	-8.000000e-01	-1.000000e-01	1.154910e-07	
17	-8.500000e-01	-1.000000e-01	3.507111e-07	
18	-9.000000e-01	-1.000000e-01	1.032409e-06	
19	-9.500000e-01	-1.000000e-01	2.877244e-06	
20	-1.000000e+00	-1.000000e-01	7.057216e-06	
21	-1.050000e+00	-1.000000e-01	1.418235e-05	
22	-1.100000e+00	-1.000000e-01	2.342027e-05	
23	-1.150000e+00	-1.000000e-01	3.346770e-05	
24	-1.200000e+00	-1.000000e-01	4.347766e-05	
25	-1.250000e+00	-1.000000e-01	5.311114e-05	
26	-1.300000e+00	-1.000000e-01	6.231069e-05	
27	-1.350000e+00	-1.000000e-01	7.112420e-05	
28	-1.400000e+00	-1.000000e-01	7.961970e-05	
29	-1.450000e+00	-1.000000e-01	8.785551e-05	
30	-1.500000e+00	-1.000000e-01	9.587430e-05	
31	-1.550000e+00	-1.000000e-01	1.037053e-04	
32	-1.600000e+00	-1.000000e-01	1.113679e-04	
33	-1.650000e+00	-1.000000e-01	1.188751e-04	
34	-1.700000e+00	-1.000000e-01	1.262360e-04	
35	-1.750000e+00	-1.000000e-01	1.334569e-04	
36	-1.800000e+00	-1.000000e-01	1.405428e-04	
37	-1.850000e+00	-1.000000e-01	1.474978e-04	
38	-1.900000e+00	-1.000000e-01	1.543253e-04	
39	-1.950000e+00	-1.000000e-01	1.610286e-04	
40	-2.000000e+00	-1.000000e-01	1.676106e-04	
41	-2.050000e+00	-1.000000e-01	1.740740e-04	
42	-2.100000e+00	-1.000000e-01	1.804218e-04	
43	-2.150000e+00	-1.000000e-01	1.866564e-04	
44	-2.200000e+00	-1.000000e-01	1.927804e-04	
45	-2.250000e+00	-1.000000e-01	1.987965e-04	
46	-2.300000e+00	-1.000000e-01	2.047069e-04	
47	-2.350000e+00	-1.000000e-01	2.105140e-04	
48	-2.400000e+00	-1.000000e-01	2.162202e-04	
49	-2.450000e+00	-1.000000e-01	2.218278e-04	
50	-2.500000e+00	-1.000000e-01	2.273388e-04	
51	-2.550000e+00	-1.000000e-01	2.327555e-04	
52	-2.600000e+00	-1.000000e-01	2.380799e-04	
53	-2.650000e+00	-1.000000e-01	2.433140e-04	
54	-2.700000e+00	-1.000000e-01	2.484597e-04	

Index   sweep           v(2)            vds#branch      
--------------------------------------------------------------------------------
55	-2.750000e+00	-1.000000e-01	2.535191e-04	
56	-2.800000e+00	-1.000000e-01	2.584940e-04	
57	-2.850000e+00	-1.000000e-01	2.633861e-04	
58	-2.900000e+00	-1.000000e-01	2.681972e-04	
59	-2.950000e+00	-1.000000e-01	2.729290e-04	
60	-3.000000e+00	-1.000000e-01	2.775833e-04	
61	-3.050000e+00	-1.000000e-01	2.821616e-04	
62	-3.100000e+00	-1.000000e-01	2.866655e-04	
63	-3.150000e+00	-1.000000e-01	2.910965e-04	
64	-3.200000e+00	-1.000000e-01	2.954561e-04	
65	-3.250000e+00	-1.000000e-01	2.997458e-04	
66	-3.300000e+00	-1.000000e-01	3.039671e-04	
67	-3.350000e+00	-1.000000e-01	3.081212e-04	
68	-3.400000e+00	-1.000000e-01	3.122095e-04	
69	-3.450000e+00	-1.000000e-01	3.162333e-04	
70	-3.500000e+00	-1.000000e-01	3.201940e-04	
71	0.000000e+00	-1.100000e+00	2.202003e-12	
72	-5.000000e-02	-1.100000e+00	2.204452e-12	
73	-1.000000e-01	-1.100000e+00	2.223092e-12	
74	-1.500000e-01	-1.100000e+00	2.278402e-12	
75	-2.000000e-01	-1.100000e+00	2.466177e-12	
76	-2.500000e-01	-1.100000e+00	3.103581e-12	
77	-3.000000e-01	-1.100000e+00	5.266731e-12	
78	-3.500000e-01	-1.100000e+00	1.260454e-11	
79	-4.000000e-01	-1.100000e+00	3.747563e-11	
80	-4.500000e-01	-1.100000e+00	1.216499e-10	
81	-5.000000e-01	-1.100000e+00	4.057643e-10	
82	-5.500000e-01	-1.100000e+00	1.360105e-09	
83	-6.000000e-01	-1.100000e+00	4.538520e-09	
84	-6.500000e-01	-1.100000e+00	1.497249e-08	
85	-7.000000e-01	-1.100000e+00	4.845603e-08	
86	-7.500000e-01	-1.100000e+00	1.526130e-07	
87	-8.000000e-01	-1.100000e+00	4.658752e-07	
88	-8.500000e-01	-1.100000e+00	1.380736e-06	
89	-9.000000e-01	-1.100000e+00	3.928744e-06	
90	-9.500000e-01	-1.100000e+00	1.021773e-05	
91	-1.000000e+00	-1.100000e+00	2.287940e-05	
92	-1.050000e+00	-1.100000e+00	4.320515e-05	
93	-1.100000e+00	-1.100000e+00	7.026304e-05	
94	-1.150000e+00	-1.100000e+00	1.020665e-04	
95	-1.200000e+00	-1.100000e+00	1.369297e-04	
96	-1.250000e+00	-1.100000e+00	1.738670e-04	
97	-1.300000e+00	-1.100000e+00	2.124126e-04	
98	-1.350000e+00	-1.100000e+00	2.523654e-04	
99	-1.400000e+00	-1.100000e+00	2.936253e-04	
100	-1.450000e+00	-1.100000e+00	3.361164e-04	
101	-1.500000e+00	-1.100000e+00	3.797592e-04	
102	-1.550000e+00	-1.100000e+00	4.244653e-04	
103	-1.600000e+00	-1.100000e+00	4.701390e-04	
104	-1.650000e+00	-1.100000e+00	5.166819e-04	
105	-1.700000e+00	-1.100000e+00	5.639964e-04	
106	-1.750000e+00	-1.100000e+00	6.119880e-04	
107	-1.800000e+00	-1.100000e+00	6.605667e-04	
108	-1.850000e+00	-1.100000e+00	7.096482e-04	
109	-1.900000e+00	-1.100000e+00	7.591535e-04	
110	-1.950000e+00	-1.100000e+00	8.090092e-04	
111	-2.000000e+00	-1.100000e+00	8.591472e-04	
112	-2.050000e+00	-1.100000e+00	9.095036e-04	

Index   sweep           v(2)            vds#branch      
--------------------------------------------------------------------------------
113	-2.100000e+00	-1.100000e+00	9.600193e-04	
114	-2.150000e+00	-1.100000e+00	1.010639e-03	
115	-2.200000e+00	-1.100000e+00	1.061310e-03	
116	-2.250000e+00	-1.100000e+00	1.111983e-03	
117	-2.300000e+00	-1.100000e+00	1.162611e-03	
118	-2.350000e+00	-1.100000e+00	1.213151e-03	
119	-2.400000e+00	-1.100000e+00	1.263558e-03	
120	-2.450000e+00	-1.100000e+00	1.313793e-03	
121	-2.500000e+00	-1.100000e+00	1.363816e-03	
122	-2.550000e+00	-1.100000e+00	1.413589e-03	
123	-2.600000e+00	-1.100000e+00	1.463075e-03	
124	-2.650000e+00	-1.100000e+00	1.512240e-03	
125	-2.700000e+00	-1.100000e+00	1.561051e-03	
126	-2.750000e+00	-1.100000e+00	1.609480e-03	
127	-2.800000e+00	-1.100000e+00	1.657499e-03	
128	-2.850000e+00	-1.100000e+00	1.705084e-03	
129	-2.900000e+00	-1.100000e+00	1.752216e-03	
130	-2.950000e+00	-1.100000e+00	1.798878e-03	
131	-3.000000e+00	-1.100000e+00	1.845057e-03	
132	-3.050000e+00	-1.100000e+00	1.890744e-03	
133	-3.100000e+00	-1.100000e+00	1.935931e-03	
134	-3.150000e+00	-1.100000e+00	1.980614e-03	
135	-3.200000e+00	-1.100000e+00	2.024791e-03	
136	-3.250000e+00	-1.100000e+00	2.068461e-03	
137	-3.300000e+00	-1.100000e+00	2.111625e-03	
138	-3.350000e+00	-1.100000e+00	2.154285e-03	
139	-3.400000e+00	-1.100000e+00	2.196445e-03	
140	-3.450000e+00	-1.100000e+00	2.238108e-03	
141	-3.500000e+00	-1.100000e+00	2.279279e-03	
142	0.000000e+00	-2.100000e+00	4.207474e-12	
143	-5.000000e-02	-2.100000e+00	4.216610e-12	
144	-1.000000e-01	-2.100000e+00	4.286159e-12	
145	-1.500000e-01	-2.100000e+00	4.492517e-12	
146	-2.000000e-01	-2.100000e+00	5.193018e-12	
147	-2.500000e-01	-2.100000e+00	7.570426e-12	
148	-3.000000e-01	-2.100000e+00	1.563583e-11	
149	-3.500000e-01	-2.100000e+00	4.297793e-11	
150	-4.000000e-01	-2.100000e+00	1.355453e-10	
151	-4.500000e-01	-2.100000e+00	4.481735e-10	
152	-5.000000e-01	-2.100000e+00	1.499396e-09	
153	-5.500000e-01	-2.100000e+00	5.006843e-09	
154	-6.000000e-01	-2.100000e+00	1.655527e-08	
155	-6.500000e-01	-2.100000e+00	5.377741e-08	
156	-7.000000e-01	-2.100000e+00	1.701571e-07	
157	-7.500000e-01	-2.100000e+00	5.213885e-07	
158	-8.000000e-01	-2.100000e+00	1.546896e-06	
159	-8.500000e-01	-2.100000e+00	4.406025e-06	
160	-9.000000e-01	-2.100000e+00	1.153433e-05	
161	-9.500000e-01	-2.100000e+00	2.612707e-05	
162	-1.000000e+00	-2.100000e+00	4.991331e-05	
163	-1.050000e+00	-2.100000e+00	8.187486e-05	
164	-1.100000e+00	-2.100000e+00	1.195635e-04	
165	-1.150000e+00	-2.100000e+00	1.608437e-04	
166	-1.200000e+00	-2.100000e+00	2.044660e-04	
167	-1.250000e+00	-2.100000e+00	2.498609e-04	
168	-1.300000e+00	-2.100000e+00	2.968093e-04	
169	-1.350000e+00	-2.100000e+00	3.452269e-04	
170	-1.400000e+00	-2.100000e+00	3.950609e-04	

Index   sweep           v(2)            vds#branch      
--------------------------------------------------------------------------------
171	-1.450000e+00	-2.100000e+00	4.462528e-04	
172	-1.500000e+00	-2.100000e+00	4.987300e-04	
173	-1.550000e+00	-2.100000e+00	5.524084e-04	
174	-1.600000e+00	-2.100000e+00	6.071978e-04	
175	-1.650000e+00	-2.100000e+00	6.630063e-04	
176	-1.700000e+00	-2.100000e+00	7.197443e-04	
177	-1.750000e+00	-2.100000e+00	7.773259e-04	
178	-1.800000e+00	-2.100000e+00	8.356704e-04	
179	-1.850000e+00	-2.100000e+00	8.947029e-04	
180	-1.900000e+00	-2.100000e+00	9.543541e-04	
181	-1.950000e+00	-2.100000e+00	1.014560e-03	
182	-2.000000e+00	-2.100000e+00	1.075262e-03	
183	-2.050000e+00	-2.100000e+00	1.136406e-03	
184	-2.100000e+00	-2.100000e+00	1.197943e-03	
185	-2.150000e+00	-2.100000e+00	1.259827e-03	
186	-2.200000e+00	-2.100000e+00	1.322015e-03	
187	-2.250000e+00	-2.100000e+00	1.384470e-03	
188	-2.300000e+00	-2.100000e+00	1.447154e-03	
189	-2.350000e+00	-2.100000e+00	1.510035e-03	
190	-2.400000e+00	-2.100000e+00	1.573081e-03	
191	-2.450000e+00	-2.100000e+00	1.636265e-03	
192	-2.500000e+00	-2.100000e+00	1.699559e-03	
193	-2.550000e+00	-2.100000e+00	1.762938e-03	
194	-2.600000e+00	-2.100000e+00	1.826379e-03	
195	-2.650000e+00	-2.100000e+00	1.889860e-03	
196	-2.700000e+00	-2.100000e+00	1.953360e-03	
197	-2.750000e+00	-2.100000e+00	2.016860e-03	
198	-2.800000e+00	-2.100000e+00	2.080342e-03	
199	-2.850000e+00	-2.100000e+00	2.143788e-03	
200	-2.900000e+00	-2.100000e+00	2.207183e-03	
201	-2.950000e+00	-2.100000e+00	2.270511e-03	
202	-3.000000e+00	-2.100000e+00	2.333758e-03	
203	-3.050000e+00	-2.100000e+00	2.396908e-03	
204	-3.100000e+00	-2.100000e+00	2.459950e-03	
205	-3.150000e+00	-2.100000e+00	2.522871e-03	
206	-3.200000e+00	-2.100000e+00	2.585658e-03	
207	-3.250000e+00	-2.100000e+00	2.648301e-03	
208	-3.300000e+00	-2.100000e+00	2.710787e-03	
209	-3.350000e+00	-2.100000e+00	2.773107e-03	
210	-3.400000e+00	-2.100000e+00	2.835251e-03	
211	-3.450000e+00	-2.100000e+00	2.897208e-03	
212	-3.500000e+00	-2.100000e+00	2.958969e-03	
213	0.000000e+00	-3.100000e+00	6.226112e-12	
214	-5.000000e-02	-3.100000e+00	6.258031e-12	
215	-1.000000e-01	-3.100000e+00	6.501002e-12	
216	-1.500000e-01	-3.100000e+00	7.221846e-12	
217	-2.000000e-01	-3.100000e+00	9.668409e-12	
218	-2.500000e-01	-3.100000e+00	1.796915e-11	
219	-3.000000e-01	-3.100000e+00	4.611360e-11	
220	-3.500000e-01	-3.100000e+00	1.414253e-10	
221	-4.000000e-01	-3.100000e+00	4.634937e-10	
222	-4.500000e-01	-3.100000e+00	1.547494e-09	
223	-5.000000e-01	-3.100000e+00	5.170344e-09	
224	-5.500000e-01	-3.100000e+00	1.713199e-08	
225	-6.000000e-01	-3.100000e+00	5.585023e-08	
226	-6.500000e-01	-3.100000e+00	1.775700e-07	
227	-7.000000e-01	-3.100000e+00	5.467402e-07	
228	-7.500000e-01	-3.100000e+00	1.627472e-06	

Index   sweep           v(2)            vds#branch      
--------------------------------------------------------------------------------
229	-8.000000e-01	-3.100000e+00	4.654159e-06	
230	-8.500000e-01	-3.100000e+00	1.231030e-05	
231	-9.000000e-01	-3.100000e+00	2.833544e-05	
232	-9.500000e-01	-3.100000e+00	5.498155e-05	
233	-1.000000e+00	-3.100000e+00	9.120455e-05	
234	-1.050000e+00	-3.100000e+00	1.340599e-04	
235	-1.100000e+00	-3.100000e+00	1.808933e-04	
236	-1.150000e+00	-3.100000e+00	2.301425e-04	
237	-1.200000e+00	-3.100000e+00	2.811104e-04	
238	-1.250000e+00	-3.100000e+00	3.335521e-04	
239	-1.300000e+00	-3.100000e+00	3.873968e-04	
240	-1.350000e+00	-3.100000e+00	4.426150e-04	
241	-1.400000e+00	-3.100000e+00	4.991692e-04	
242	-1.450000e+00	-3.100000e+00	5.570028e-04	
243	-1.500000e+00	-3.100000e+00	6.160434e-04	
244	-1.550000e+00	-3.100000e+00	6.762085e-04	
245	-1.600000e+00	-3.100000e+00	7.374121e-04	
246	-1.650000e+00	-3.100000e+00	7.995686e-04	
247	-1.700000e+00	-3.100000e+00	8.625954e-04	
248	-1.750000e+00	-3.100000e+00	9.264146e-04	
249	-1.800000e+00	-3.100000e+00	9.909539e-04	
250	-1.850000e+00	-3.100000e+00	1.056146e-03	
251	-1.900000e+00	-3.100000e+00	1.121930e-03	
252	-1.950000e+00	-3.100000e+00	1.188249e-03	
253	-2.000000e+00	-3.100000e+00	1.255052e-03	
254	-2.050000e+00	-3.100000e+00	1.322291e-03	
255	-2.100000e+00	-3.100000e+00	1.389924e-03	
256	-2.150000e+00	-3.100000e+00	1.457909e-03	
257	-2.200000e+00	-3.100000e+00	1.526211e-03	
258	-2.250000e+00	-3.100000e+00	1.594796e-03	
259	-2.300000e+00	-3.100000e+00	1.663634e-03	
260	-2.350000e+00	-3.100000e+00	1.732694e-03	
261	-2.400000e+00	-3.100000e+00	1.801952e-03	
262	-2.450000e+00	-3.100000e+00	1.871383e-03	
263	-2.500000e+00	-3.100000e+00	1.940963e-03	
264	-2.550000e+00	-3.100000e+00	2.010671e-03	
265	-2.600000e+00	-3.100000e+00	2.080489e-03	
266	-2.650000e+00	-3.100000e+00	2.150397e-03	
267	-2.700000e+00	-3.100000e+00	2.220378e-03	
268	-2.750000e+00	-3.100000e+00	2.290417e-03	
269	-2.800000e+00	-3.100000e+00	2.360498e-03	
270	-2.850000e+00	-3.100000e+00	2.430607e-03	
271	-2.900000e+00	-3.100000e+00	2.500731e-03	
272	-2.950000e+00	-3.100000e+00	2.570858e-03	
273	-3.000000e+00	-3.100000e+00	2.640974e-03	
274	-3.050000e+00	-3.100000e+00	2.711071e-03	
275	-3.100000e+00	-3.100000e+00	2.781135e-03	
276	-3.150000e+00	-3.100000e+00	2.851159e-03	
277	-3.200000e+00	-3.100000e+00	2.921132e-03	
278	-3.250000e+00	-3.100000e+00	2.991045e-03	
279	-3.300000e+00	-3.100000e+00	3.060890e-03	
280	-3.350000e+00	-3.100000e+00	3.130658e-03	
281	-3.400000e+00	-3.100000e+00	3.200342e-03	
282	-3.450000e+00	-3.100000e+00	3.269934e-03	
283	-3.500000e+00	-3.100000e+00	3.339427e-03	

CPU time since last call: 0.220 seconds.

Total CPU time: 0.220 seconds.

Current dynamic memory usage = 163840,
Dynamic memory limit = 2147368959.

