
Circuit: *****Single NMOS Transistor For BSIM3V3.1  general purpose check (Id-Vd) ***

Warning: Pd = 0 is less than W.
Warning: Ps = 0 is less than W.
Circuit: *****Single NMOS Transistor For BSIM3V3.1  general purpose check (Id-Vd) ***
Date: Tue Apr 14 21:34:34  1998


  *****Single NMOS Transistor For BSIM3V3.1  general purpose check (Id-Vd) ***
  DC transfer characteristic  Tue Apr 14 21:34:34  1998
--------------------------------------------------------------------------------
Index   sweep           v(1)            vds#branch      
--------------------------------------------------------------------------------
0	0.000000e+00	0.000000e+00	0.000000e+00	
1	5.000000e-02	0.000000e+00	-2.198142e-13	
2	1.000000e-01	0.000000e+00	-3.069011e-13	
3	1.500000e-01	0.000000e+00	-4.141195e-13	
4	2.000000e-01	0.000000e+00	-5.194406e-13	
5	2.500000e-01	0.000000e+00	-6.241369e-13	
6	3.000000e-01	0.000000e+00	-7.285477e-13	
7	3.500000e-01	0.000000e+00	-8.328085e-13	
8	4.000000e-01	0.000000e+00	-9.369887e-13	
9	4.500000e-01	0.000000e+00	-1.041129e-12	
10	5.000000e-01	0.000000e+00	-1.145257e-12	
11	5.500000e-01	0.000000e+00	-1.249390e-12	
12	6.000000e-01	0.000000e+00	-1.353543e-12	
13	6.500000e-01	0.000000e+00	-1.457726e-12	
14	7.000000e-01	0.000000e+00	-1.561948e-12	
15	7.500000e-01	0.000000e+00	-1.666214e-12	
16	8.000000e-01	0.000000e+00	-1.770532e-12	
17	8.500000e-01	0.000000e+00	-1.874904e-12	
18	9.000000e-01	0.000000e+00	-1.979337e-12	
19	9.500000e-01	0.000000e+00	-2.083832e-12	
20	1.000000e+00	0.000000e+00	-2.188394e-12	
21	1.050000e+00	0.000000e+00	-2.293025e-12	
22	1.100000e+00	0.000000e+00	-2.397727e-12	
23	1.150000e+00	0.000000e+00	-2.502505e-12	
24	1.200000e+00	0.000000e+00	-2.607359e-12	
25	1.250000e+00	0.000000e+00	-2.712292e-12	
26	1.300000e+00	0.000000e+00	-2.817307e-12	
27	1.350000e+00	0.000000e+00	-2.922405e-12	
28	1.400000e+00	0.000000e+00	-3.027588e-12	
29	1.450000e+00	0.000000e+00	-3.132858e-12	
30	1.500000e+00	0.000000e+00	-3.238218e-12	
31	1.550000e+00	0.000000e+00	-3.343669e-12	
32	1.600000e+00	0.000000e+00	-3.449213e-12	
33	1.650000e+00	0.000000e+00	-3.554852e-12	
34	1.700000e+00	0.000000e+00	-3.660588e-12	
35	1.750000e+00	0.000000e+00	-3.766423e-12	
36	1.800000e+00	0.000000e+00	-3.872359e-12	
37	1.850000e+00	0.000000e+00	-3.978398e-12	
38	1.900000e+00	0.000000e+00	-4.084542e-12	
39	1.950000e+00	0.000000e+00	-4.190794e-12	
40	2.000000e+00	0.000000e+00	-4.297156e-12	
41	2.050000e+00	0.000000e+00	-4.403631e-12	
42	2.100000e+00	0.000000e+00	-4.510222e-12	
43	2.150000e+00	0.000000e+00	-4.616933e-12	
44	2.200000e+00	0.000000e+00	-4.723769e-12	
45	2.250000e+00	0.000000e+00	-4.830733e-12	
46	2.300000e+00	0.000000e+00	-4.937832e-12	
47	2.350000e+00	0.000000e+00	-5.045073e-12	
48	2.400000e+00	0.000000e+00	-5.152463e-12	
49	2.450000e+00	0.000000e+00	-5.260012e-12	
50	2.500000e+00	0.000000e+00	-5.367732e-12	
51	2.550000e+00	0.000000e+00	-5.475634e-12	
52	2.600000e+00	0.000000e+00	-5.583735e-12	
53	2.650000e+00	0.000000e+00	-5.692053e-12	
54	2.700000e+00	0.000000e+00	-5.800607e-12	

Index   sweep           v(1)            vds#branch      
--------------------------------------------------------------------------------
55	2.750000e+00	0.000000e+00	-5.909423e-12	
56	2.800000e+00	0.000000e+00	-6.018529e-12	
57	2.850000e+00	0.000000e+00	-6.127955e-12	
58	2.900000e+00	0.000000e+00	-6.237739e-12	
59	2.950000e+00	0.000000e+00	-6.347923e-12	
60	3.000000e+00	0.000000e+00	-6.458554e-12	
61	3.050000e+00	0.000000e+00	-6.569685e-12	
62	3.100000e+00	0.000000e+00	-6.681377e-12	
63	3.150000e+00	0.000000e+00	-6.793697e-12	
64	3.200000e+00	0.000000e+00	-6.906721e-12	
65	3.250000e+00	0.000000e+00	-7.020533e-12	
66	3.300000e+00	0.000000e+00	-7.135225e-12	
67	3.350000e+00	0.000000e+00	-7.250901e-12	
68	3.400000e+00	0.000000e+00	-7.367675e-12	
69	3.450000e+00	0.000000e+00	-7.485672e-12	
70	3.500000e+00	0.000000e+00	-7.605028e-12	
71	0.000000e+00	5.000000e-01	0.000000e+00	
72	5.000000e-02	5.000000e-01	-9.030182e-08	
73	1.000000e-01	5.000000e-01	-1.083528e-07	
74	1.500000e-01	5.000000e-01	-1.156066e-07	
75	2.000000e-01	5.000000e-01	-1.208910e-07	
76	2.500000e-01	5.000000e-01	-1.255222e-07	
77	3.000000e-01	5.000000e-01	-1.298501e-07	
78	3.500000e-01	5.000000e-01	-1.340140e-07	
79	4.000000e-01	5.000000e-01	-1.380848e-07	
80	4.500000e-01	5.000000e-01	-1.421045e-07	
81	5.000000e-01	5.000000e-01	-1.461004e-07	
82	5.500000e-01	5.000000e-01	-1.500915e-07	
83	6.000000e-01	5.000000e-01	-1.540917e-07	
84	6.500000e-01	5.000000e-01	-1.581115e-07	
85	7.000000e-01	5.000000e-01	-1.621591e-07	
86	7.500000e-01	5.000000e-01	-1.662411e-07	
87	8.000000e-01	5.000000e-01	-1.703630e-07	
88	8.500000e-01	5.000000e-01	-1.745292e-07	
89	9.000000e-01	5.000000e-01	-1.787437e-07	
90	9.500000e-01	5.000000e-01	-1.830097e-07	
91	1.000000e+00	5.000000e-01	-1.873302e-07	
92	1.050000e+00	5.000000e-01	-1.917080e-07	
93	1.100000e+00	5.000000e-01	-1.961452e-07	
94	1.150000e+00	5.000000e-01	-2.006442e-07	
95	1.200000e+00	5.000000e-01	-2.052070e-07	
96	1.250000e+00	5.000000e-01	-2.098354e-07	
97	1.300000e+00	5.000000e-01	-2.145313e-07	
98	1.350000e+00	5.000000e-01	-2.192963e-07	
99	1.400000e+00	5.000000e-01	-2.241321e-07	
100	1.450000e+00	5.000000e-01	-2.290404e-07	
101	1.500000e+00	5.000000e-01	-2.340225e-07	
102	1.550000e+00	5.000000e-01	-2.390800e-07	
103	1.600000e+00	5.000000e-01	-2.442144e-07	
104	1.650000e+00	5.000000e-01	-2.494272e-07	
105	1.700000e+00	5.000000e-01	-2.547198e-07	
106	1.750000e+00	5.000000e-01	-2.600937e-07	
107	1.800000e+00	5.000000e-01	-2.655505e-07	
108	1.850000e+00	5.000000e-01	-2.710917e-07	
109	1.900000e+00	5.000000e-01	-2.767190e-07	
110	1.950000e+00	5.000000e-01	-2.824343e-07	
111	2.000000e+00	5.000000e-01	-2.882396e-07	
112	2.050000e+00	5.000000e-01	-2.941370e-07	

Index   sweep           v(1)            vds#branch      
--------------------------------------------------------------------------------
113	2.100000e+00	5.000000e-01	-3.001293e-07	
114	2.150000e+00	5.000000e-01	-3.062194e-07	
115	2.200000e+00	5.000000e-01	-3.124109e-07	
116	2.250000e+00	5.000000e-01	-3.187078e-07	
117	2.300000e+00	5.000000e-01	-3.251151e-07	
118	2.350000e+00	5.000000e-01	-3.316388e-07	
119	2.400000e+00	5.000000e-01	-3.382857e-07	
120	2.450000e+00	5.000000e-01	-3.450642e-07	
121	2.500000e+00	5.000000e-01	-3.519842e-07	
122	2.550000e+00	5.000000e-01	-3.590573e-07	
123	2.600000e+00	5.000000e-01	-3.662973e-07	
124	2.650000e+00	5.000000e-01	-3.737204e-07	
125	2.700000e+00	5.000000e-01	-3.813452e-07	
126	2.750000e+00	5.000000e-01	-3.891935e-07	
127	2.800000e+00	5.000000e-01	-3.972907e-07	
128	2.850000e+00	5.000000e-01	-4.056655e-07	
129	2.900000e+00	5.000000e-01	-4.143512e-07	
130	2.950000e+00	5.000000e-01	-4.233856e-07	
131	3.000000e+00	5.000000e-01	-4.328113e-07	
132	3.050000e+00	5.000000e-01	-4.426767e-07	
133	3.100000e+00	5.000000e-01	-4.530361e-07	
134	3.150000e+00	5.000000e-01	-4.639504e-07	
135	3.200000e+00	5.000000e-01	-4.754873e-07	
136	3.250000e+00	5.000000e-01	-4.877223e-07	
137	3.300000e+00	5.000000e-01	-5.007390e-07	
138	3.350000e+00	5.000000e-01	-5.146294e-07	
139	3.400000e+00	5.000000e-01	-5.294952e-07	
140	3.450000e+00	5.000000e-01	-5.454476e-07	
141	3.500000e+00	5.000000e-01	-5.626083e-07	
142	0.000000e+00	1.000000e+00	0.000000e+00	
143	5.000000e-02	1.000000e+00	-6.806586e-05	
144	1.000000e-01	1.000000e+00	-1.222039e-04	
145	1.500000e-01	1.000000e+00	-1.637466e-04	
146	2.000000e-01	1.000000e+00	-1.941092e-04	
147	2.500000e-01	1.000000e+00	-2.150924e-04	
148	3.000000e-01	1.000000e+00	-2.291453e-04	
149	3.500000e-01	1.000000e+00	-2.388729e-04	
150	4.000000e-01	1.000000e+00	-2.461263e-04	
151	4.500000e-01	1.000000e+00	-2.519038e-04	
152	5.000000e-01	1.000000e+00	-2.567211e-04	
153	5.500000e-01	1.000000e+00	-2.608668e-04	
154	6.000000e-01	1.000000e+00	-2.645187e-04	
155	6.500000e-01	1.000000e+00	-2.677942e-04	
156	7.000000e-01	1.000000e+00	-2.707752e-04	
157	7.500000e-01	1.000000e+00	-2.735210e-04	
158	8.000000e-01	1.000000e+00	-2.760758e-04	
159	8.500000e-01	1.000000e+00	-2.784732e-04	
160	9.000000e-01	1.000000e+00	-2.807393e-04	
161	9.500000e-01	1.000000e+00	-2.828949e-04	
162	1.000000e+00	1.000000e+00	-2.849564e-04	
163	1.050000e+00	1.000000e+00	-2.869374e-04	
164	1.100000e+00	1.000000e+00	-2.888488e-04	
165	1.150000e+00	1.000000e+00	-2.906997e-04	
166	1.200000e+00	1.000000e+00	-2.924977e-04	
167	1.250000e+00	1.000000e+00	-2.942493e-04	
168	1.300000e+00	1.000000e+00	-2.959599e-04	
169	1.350000e+00	1.000000e+00	-2.976341e-04	
170	1.400000e+00	1.000000e+00	-2.992759e-04	

Index   sweep           v(1)            vds#branch      
--------------------------------------------------------------------------------
171	1.450000e+00	1.000000e+00	-3.008887e-04	
172	1.500000e+00	1.000000e+00	-3.024756e-04	
173	1.550000e+00	1.000000e+00	-3.040390e-04	
174	1.600000e+00	1.000000e+00	-3.055814e-04	
175	1.650000e+00	1.000000e+00	-3.071047e-04	
176	1.700000e+00	1.000000e+00	-3.086107e-04	
177	1.750000e+00	1.000000e+00	-3.101010e-04	
178	1.800000e+00	1.000000e+00	-3.115769e-04	
179	1.850000e+00	1.000000e+00	-3.130399e-04	
180	1.900000e+00	1.000000e+00	-3.144909e-04	
181	1.950000e+00	1.000000e+00	-3.159312e-04	
182	2.000000e+00	1.000000e+00	-3.173617e-04	
183	2.050000e+00	1.000000e+00	-3.187834e-04	
184	2.100000e+00	1.000000e+00	-3.201973e-04	
185	2.150000e+00	1.000000e+00	-3.216044e-04	
186	2.200000e+00	1.000000e+00	-3.230058e-04	
187	2.250000e+00	1.000000e+00	-3.244028e-04	
188	2.300000e+00	1.000000e+00	-3.257968e-04	
189	2.350000e+00	1.000000e+00	-3.271894e-04	
190	2.400000e+00	1.000000e+00	-3.285827e-04	
191	2.450000e+00	1.000000e+00	-3.299791e-04	
192	2.500000e+00	1.000000e+00	-3.313815e-04	
193	2.550000e+00	1.000000e+00	-3.327933e-04	
194	2.600000e+00	1.000000e+00	-3.342188e-04	
195	2.650000e+00	1.000000e+00	-3.356630e-04	
196	2.700000e+00	1.000000e+00	-3.371319e-04	
197	2.750000e+00	1.000000e+00	-3.386326e-04	
198	2.800000e+00	1.000000e+00	-3.401734e-04	
199	2.850000e+00	1.000000e+00	-3.417639e-04	
200	2.900000e+00	1.000000e+00	-3.434153e-04	
201	2.950000e+00	1.000000e+00	-3.451404e-04	
202	3.000000e+00	1.000000e+00	-3.469538e-04	
203	3.050000e+00	1.000000e+00	-3.488722e-04	
204	3.100000e+00	1.000000e+00	-3.509143e-04	
205	3.150000e+00	1.000000e+00	-3.531011e-04	
206	3.200000e+00	1.000000e+00	-3.554561e-04	
207	3.250000e+00	1.000000e+00	-3.580052e-04	
208	3.300000e+00	1.000000e+00	-3.607772e-04	
209	3.350000e+00	1.000000e+00	-3.638037e-04	
210	3.400000e+00	1.000000e+00	-3.671191e-04	
211	3.450000e+00	1.000000e+00	-3.707613e-04	
212	3.500000e+00	1.000000e+00	-3.747711e-04	
213	0.000000e+00	1.500000e+00	-1.504633e-36	
214	5.000000e-02	1.500000e+00	-1.747718e-04	
215	1.000000e-01	1.500000e+00	-3.293254e-04	
216	1.500000e-01	1.500000e+00	-4.653203e-04	
217	2.000000e-01	1.500000e+00	-5.842436e-04	
218	2.500000e-01	1.500000e+00	-6.874344e-04	
219	3.000000e-01	1.500000e+00	-7.761069e-04	
220	3.500000e-01	1.500000e+00	-8.513737e-04	
221	4.000000e-01	1.500000e+00	-9.142797e-04	
222	4.500000e-01	1.500000e+00	-9.658644e-04	
223	5.000000e-01	1.500000e+00	-1.007287e-03	
224	5.500000e-01	1.500000e+00	-1.039977e-03	
225	6.000000e-01	1.500000e+00	-1.065628e-03	
226	6.500000e-01	1.500000e+00	-1.085924e-03	
227	7.000000e-01	1.500000e+00	-1.102269e-03	
228	7.500000e-01	1.500000e+00	-1.115713e-03	

Index   sweep           v(1)            vds#branch      
--------------------------------------------------------------------------------
229	8.000000e-01	1.500000e+00	-1.127002e-03	
230	8.500000e-01	1.500000e+00	-1.136664e-03	
231	9.000000e-01	1.500000e+00	-1.145074e-03	
232	9.500000e-01	1.500000e+00	-1.152503e-03	
233	1.000000e+00	1.500000e+00	-1.159150e-03	
234	1.050000e+00	1.500000e+00	-1.165166e-03	
235	1.100000e+00	1.500000e+00	-1.170666e-03	
236	1.150000e+00	1.500000e+00	-1.175736e-03	
237	1.200000e+00	1.500000e+00	-1.180448e-03	
238	1.250000e+00	1.500000e+00	-1.184856e-03	
239	1.300000e+00	1.500000e+00	-1.189005e-03	
240	1.350000e+00	1.500000e+00	-1.192931e-03	
241	1.400000e+00	1.500000e+00	-1.196664e-03	
242	1.450000e+00	1.500000e+00	-1.200230e-03	
243	1.500000e+00	1.500000e+00	-1.203648e-03	
244	1.550000e+00	1.500000e+00	-1.206936e-03	
245	1.600000e+00	1.500000e+00	-1.210109e-03	
246	1.650000e+00	1.500000e+00	-1.213180e-03	
247	1.700000e+00	1.500000e+00	-1.216159e-03	
248	1.750000e+00	1.500000e+00	-1.219056e-03	
249	1.800000e+00	1.500000e+00	-1.221879e-03	
250	1.850000e+00	1.500000e+00	-1.224635e-03	
251	1.900000e+00	1.500000e+00	-1.227331e-03	
252	1.950000e+00	1.500000e+00	-1.229972e-03	
253	2.000000e+00	1.500000e+00	-1.232562e-03	
254	2.050000e+00	1.500000e+00	-1.235107e-03	
255	2.100000e+00	1.500000e+00	-1.237609e-03	
256	2.150000e+00	1.500000e+00	-1.240074e-03	
257	2.200000e+00	1.500000e+00	-1.242504e-03	
258	2.250000e+00	1.500000e+00	-1.244902e-03	
259	2.300000e+00	1.500000e+00	-1.247272e-03	
260	2.350000e+00	1.500000e+00	-1.249617e-03	
261	2.400000e+00	1.500000e+00	-1.251940e-03	
262	2.450000e+00	1.500000e+00	-1.254246e-03	
263	2.500000e+00	1.500000e+00	-1.256540e-03	
264	2.550000e+00	1.500000e+00	-1.258826e-03	
265	2.600000e+00	1.500000e+00	-1.261111e-03	
266	2.650000e+00	1.500000e+00	-1.263404e-03	
267	2.700000e+00	1.500000e+00	-1.265714e-03	
268	2.750000e+00	1.500000e+00	-1.268052e-03	
269	2.800000e+00	1.500000e+00	-1.270433e-03	
270	2.850000e+00	1.500000e+00	-1.272873e-03	
271	2.900000e+00	1.500000e+00	-1.275393e-03	
272	2.950000e+00	1.500000e+00	-1.278015e-03	
273	3.000000e+00	1.500000e+00	-1.280769e-03	
274	3.050000e+00	1.500000e+00	-1.283686e-03	
275	3.100000e+00	1.500000e+00	-1.286805e-03	
276	3.150000e+00	1.500000e+00	-1.290168e-03	
277	3.200000e+00	1.500000e+00	-1.293825e-03	
278	3.250000e+00	1.500000e+00	-1.297832e-03	
279	3.300000e+00	1.500000e+00	-1.302252e-03	
280	3.350000e+00	1.500000e+00	-1.307156e-03	
281	3.400000e+00	1.500000e+00	-1.312624e-03	
282	3.450000e+00	1.500000e+00	-1.318742e-03	
283	3.500000e+00	1.500000e+00	-1.325607e-03	
284	0.000000e+00	2.000000e+00	0.000000e+00	
285	5.000000e-02	2.000000e+00	-2.692609e-04	
286	1.000000e-01	2.000000e+00	-5.141533e-04	

Index   sweep           v(1)            vds#branch      
--------------------------------------------------------------------------------
287	1.500000e-01	2.000000e+00	-7.365759e-04	
288	2.000000e-01	2.000000e+00	-9.382326e-04	
289	2.500000e-01	2.000000e+00	-1.120655e-03	
290	3.000000e-01	2.000000e+00	-1.285222e-03	
291	3.500000e-01	2.000000e+00	-1.433169e-03	
292	4.000000e-01	2.000000e+00	-1.565596e-03	
293	4.500000e-01	2.000000e+00	-1.683468e-03	
294	5.000000e-01	2.000000e+00	-1.787592e-03	
295	5.500000e-01	2.000000e+00	-1.878600e-03	
296	6.000000e-01	2.000000e+00	-1.956930e-03	
297	6.500000e-01	2.000000e+00	-2.022919e-03	
298	7.000000e-01	2.000000e+00	-2.077112e-03	
299	7.500000e-01	2.000000e+00	-2.120630e-03	
300	8.000000e-01	2.000000e+00	-2.155192e-03	
301	8.500000e-01	2.000000e+00	-2.182713e-03	
302	9.000000e-01	2.000000e+00	-2.204898e-03	
303	9.500000e-01	2.000000e+00	-2.223089e-03	
304	1.000000e+00	2.000000e+00	-2.238277e-03	
305	1.050000e+00	2.000000e+00	-2.251182e-03	
306	1.100000e+00	2.000000e+00	-2.262325e-03	
307	1.150000e+00	2.000000e+00	-2.272086e-03	
308	1.200000e+00	2.000000e+00	-2.280747e-03	
309	1.250000e+00	2.000000e+00	-2.288522e-03	
310	1.300000e+00	2.000000e+00	-2.295571e-03	
311	1.350000e+00	2.000000e+00	-2.302022e-03	
312	1.400000e+00	2.000000e+00	-2.307971e-03	
313	1.450000e+00	2.000000e+00	-2.313498e-03	
314	1.500000e+00	2.000000e+00	-2.318665e-03	
315	1.550000e+00	2.000000e+00	-2.323524e-03	
316	1.600000e+00	2.000000e+00	-2.328116e-03	
317	1.650000e+00	2.000000e+00	-2.332477e-03	
318	1.700000e+00	2.000000e+00	-2.336635e-03	
319	1.750000e+00	2.000000e+00	-2.340615e-03	
320	1.800000e+00	2.000000e+00	-2.344438e-03	
321	1.850000e+00	2.000000e+00	-2.348120e-03	
322	1.900000e+00	2.000000e+00	-2.351677e-03	
323	1.950000e+00	2.000000e+00	-2.355122e-03	
324	2.000000e+00	2.000000e+00	-2.358466e-03	
325	2.050000e+00	2.000000e+00	-2.361720e-03	
326	2.100000e+00	2.000000e+00	-2.364891e-03	
327	2.150000e+00	2.000000e+00	-2.367988e-03	
328	2.200000e+00	2.000000e+00	-2.371016e-03	
329	2.250000e+00	2.000000e+00	-2.373983e-03	
330	2.300000e+00	2.000000e+00	-2.376893e-03	
331	2.350000e+00	2.000000e+00	-2.379753e-03	
332	2.400000e+00	2.000000e+00	-2.382566e-03	
333	2.450000e+00	2.000000e+00	-2.385338e-03	
334	2.500000e+00	2.000000e+00	-2.388075e-03	
335	2.550000e+00	2.000000e+00	-2.390781e-03	
336	2.600000e+00	2.000000e+00	-2.393464e-03	
337	2.650000e+00	2.000000e+00	-2.396131e-03	
338	2.700000e+00	2.000000e+00	-2.398791e-03	
339	2.750000e+00	2.000000e+00	-2.401455e-03	
340	2.800000e+00	2.000000e+00	-2.404136e-03	
341	2.850000e+00	2.000000e+00	-2.406852e-03	
342	2.900000e+00	2.000000e+00	-2.409621e-03	
343	2.950000e+00	2.000000e+00	-2.412469e-03	
344	3.000000e+00	2.000000e+00	-2.415425e-03	

Index   sweep           v(1)            vds#branch      
--------------------------------------------------------------------------------
345	3.050000e+00	2.000000e+00	-2.418524e-03	
346	3.100000e+00	2.000000e+00	-2.421808e-03	
347	3.150000e+00	2.000000e+00	-2.425326e-03	
348	3.200000e+00	2.000000e+00	-2.429137e-03	
349	3.250000e+00	2.000000e+00	-2.433307e-03	
350	3.300000e+00	2.000000e+00	-2.437912e-03	
351	3.350000e+00	2.000000e+00	-2.443043e-03	
352	3.400000e+00	2.000000e+00	-2.448799e-03	
353	3.450000e+00	2.000000e+00	-2.455293e-03	
354	3.500000e+00	2.000000e+00	-2.462652e-03	
355	0.000000e+00	2.500000e+00	-3.009266e-36	
356	5.000000e-02	2.500000e+00	-3.488722e-04	
357	1.000000e-01	2.500000e+00	-6.708571e-04	
358	1.500000e-01	2.500000e+00	-9.679307e-04	
359	2.000000e-01	2.500000e+00	-1.241877e-03	
360	2.500000e-01	2.500000e+00	-1.494311e-03	
361	3.000000e-01	2.500000e+00	-1.726692e-03	
362	3.500000e-01	2.500000e+00	-1.940344e-03	
363	4.000000e-01	2.500000e+00	-2.136460e-03	
364	4.500000e-01	2.500000e+00	-2.316108e-03	
365	5.000000e-01	2.500000e+00	-2.480231e-03	
366	5.500000e-01	2.500000e+00	-2.629637e-03	
367	6.000000e-01	2.500000e+00	-2.764965e-03	
368	6.500000e-01	2.500000e+00	-2.886648e-03	
369	7.000000e-01	2.500000e+00	-2.994855e-03	
370	7.500000e-01	2.500000e+00	-3.089484e-03	
371	8.000000e-01	2.500000e+00	-3.170327e-03	
372	8.500000e-01	2.500000e+00	-3.237500e-03	
373	9.000000e-01	2.500000e+00	-3.291922e-03	
374	9.500000e-01	2.500000e+00	-3.335356e-03	
375	1.000000e+00	2.500000e+00	-3.369949e-03	
376	1.050000e+00	2.500000e+00	-3.397732e-03	
377	1.100000e+00	2.500000e+00	-3.420365e-03	
378	1.150000e+00	2.500000e+00	-3.439111e-03	
379	1.200000e+00	2.500000e+00	-3.454899e-03	
380	1.250000e+00	2.500000e+00	-3.468410e-03	
381	1.300000e+00	2.500000e+00	-3.480141e-03	
382	1.350000e+00	2.500000e+00	-3.490463e-03	
383	1.400000e+00	2.500000e+00	-3.499652e-03	
384	1.450000e+00	2.500000e+00	-3.507921e-03	
385	1.500000e+00	2.500000e+00	-3.515432e-03	
386	1.550000e+00	2.500000e+00	-3.522312e-03	
387	1.600000e+00	2.500000e+00	-3.528663e-03	
388	1.650000e+00	2.500000e+00	-3.534565e-03	
389	1.700000e+00	2.500000e+00	-3.540084e-03	
390	1.750000e+00	2.500000e+00	-3.545273e-03	
391	1.800000e+00	2.500000e+00	-3.550176e-03	
392	1.850000e+00	2.500000e+00	-3.554830e-03	
393	1.900000e+00	2.500000e+00	-3.559265e-03	
394	1.950000e+00	2.500000e+00	-3.563507e-03	
395	2.000000e+00	2.500000e+00	-3.567579e-03	
396	2.050000e+00	2.500000e+00	-3.571498e-03	
397	2.100000e+00	2.500000e+00	-3.575281e-03	
398	2.150000e+00	2.500000e+00	-3.578943e-03	
399	2.200000e+00	2.500000e+00	-3.582494e-03	
400	2.250000e+00	2.500000e+00	-3.585946e-03	
401	2.300000e+00	2.500000e+00	-3.589308e-03	
402	2.350000e+00	2.500000e+00	-3.592589e-03	

Index   sweep           v(1)            vds#branch      
--------------------------------------------------------------------------------
403	2.400000e+00	2.500000e+00	-3.595796e-03	
404	2.450000e+00	2.500000e+00	-3.598935e-03	
405	2.500000e+00	2.500000e+00	-3.602014e-03	
406	2.550000e+00	2.500000e+00	-3.605038e-03	
407	2.600000e+00	2.500000e+00	-3.608015e-03	
408	2.650000e+00	2.500000e+00	-3.610952e-03	
409	2.700000e+00	2.500000e+00	-3.613855e-03	
410	2.750000e+00	2.500000e+00	-3.616734e-03	
411	2.800000e+00	2.500000e+00	-3.619601e-03	
412	2.850000e+00	2.500000e+00	-3.622467e-03	
413	2.900000e+00	2.500000e+00	-3.625350e-03	
414	2.950000e+00	2.500000e+00	-3.628268e-03	
415	3.000000e+00	2.500000e+00	-3.631248e-03	
416	3.050000e+00	2.500000e+00	-3.634318e-03	
417	3.100000e+00	2.500000e+00	-3.637516e-03	
418	3.150000e+00	2.500000e+00	-3.640886e-03	
419	3.200000e+00	2.500000e+00	-3.644481e-03	
420	3.250000e+00	2.500000e+00	-3.648364e-03	
421	3.300000e+00	2.500000e+00	-3.652610e-03	
422	3.350000e+00	2.500000e+00	-3.657305e-03	
423	3.400000e+00	2.500000e+00	-3.662552e-03	
424	3.450000e+00	2.500000e+00	-3.668465e-03	
425	3.500000e+00	2.500000e+00	-3.675179e-03	
426	0.000000e+00	3.000000e+00	-3.009266e-36	
427	5.000000e-02	3.000000e+00	-4.128136e-04	
428	1.000000e-01	3.000000e+00	-7.976491e-04	
429	1.500000e-01	3.000000e+00	-1.156429e-03	
430	2.000000e-01	3.000000e+00	-1.490903e-03	
431	2.500000e-01	3.000000e+00	-1.802663e-03	
432	3.000000e-01	3.000000e+00	-2.093162e-03	
433	3.500000e-01	3.000000e+00	-2.363725e-03	
434	4.000000e-01	3.000000e+00	-2.615561e-03	
435	4.500000e-01	3.000000e+00	-2.849769e-03	
436	5.000000e-01	3.000000e+00	-3.067347e-03	
437	5.500000e-01	3.000000e+00	-3.269186e-03	
438	6.000000e-01	3.000000e+00	-3.456071e-03	
439	6.500000e-01	3.000000e+00	-3.628664e-03	
440	7.000000e-01	3.000000e+00	-3.787477e-03	
441	7.500000e-01	3.000000e+00	-3.932830e-03	
442	8.000000e-01	3.000000e+00	-4.064791e-03	
443	8.500000e-01	3.000000e+00	-4.183130e-03	
444	9.000000e-01	3.000000e+00	-4.287353e-03	
445	9.500000e-01	3.000000e+00	-4.376948e-03	
446	1.000000e+00	3.000000e+00	-4.451875e-03	
447	1.050000e+00	3.000000e+00	-4.513013e-03	
448	1.100000e+00	3.000000e+00	-4.562144e-03	
449	1.150000e+00	3.000000e+00	-4.601484e-03	
450	1.200000e+00	3.000000e+00	-4.633177e-03	
451	1.250000e+00	3.000000e+00	-4.659019e-03	
452	1.300000e+00	3.000000e+00	-4.680405e-03	
453	1.350000e+00	3.000000e+00	-4.698380e-03	
454	1.400000e+00	3.000000e+00	-4.713718e-03	
455	1.450000e+00	3.000000e+00	-4.726990e-03	
456	1.500000e+00	3.000000e+00	-4.738624e-03	
457	1.550000e+00	3.000000e+00	-4.748942e-03	
458	1.600000e+00	3.000000e+00	-4.758190e-03	
459	1.650000e+00	3.000000e+00	-4.766558e-03	
460	1.700000e+00	3.000000e+00	-4.774194e-03	

Index   sweep           v(1)            vds#branch      
--------------------------------------------------------------------------------
461	1.750000e+00	3.000000e+00	-4.781216e-03	
462	1.800000e+00	3.000000e+00	-4.787719e-03	
463	1.850000e+00	3.000000e+00	-4.793778e-03	
464	1.900000e+00	3.000000e+00	-4.799455e-03	
465	1.950000e+00	3.000000e+00	-4.804803e-03	
466	2.000000e+00	3.000000e+00	-4.809863e-03	
467	2.050000e+00	3.000000e+00	-4.814671e-03	
468	2.100000e+00	3.000000e+00	-4.819257e-03	
469	2.150000e+00	3.000000e+00	-4.823647e-03	
470	2.200000e+00	3.000000e+00	-4.827862e-03	
471	2.250000e+00	3.000000e+00	-4.831921e-03	
472	2.300000e+00	3.000000e+00	-4.835839e-03	
473	2.350000e+00	3.000000e+00	-4.839633e-03	
474	2.400000e+00	3.000000e+00	-4.843312e-03	
475	2.450000e+00	3.000000e+00	-4.846889e-03	
476	2.500000e+00	3.000000e+00	-4.850372e-03	
477	2.550000e+00	3.000000e+00	-4.853772e-03	
478	2.600000e+00	3.000000e+00	-4.857095e-03	
479	2.650000e+00	3.000000e+00	-4.860349e-03	
480	2.700000e+00	3.000000e+00	-4.863543e-03	
481	2.750000e+00	3.000000e+00	-4.866684e-03	
482	2.800000e+00	3.000000e+00	-4.869780e-03	
483	2.850000e+00	3.000000e+00	-4.872843e-03	
484	2.900000e+00	3.000000e+00	-4.875883e-03	
485	2.950000e+00	3.000000e+00	-4.878915e-03	
486	3.000000e+00	3.000000e+00	-4.881957e-03	
487	3.050000e+00	3.000000e+00	-4.885030e-03	
488	3.100000e+00	3.000000e+00	-4.888162e-03	
489	3.150000e+00	3.000000e+00	-4.891385e-03	
490	3.200000e+00	3.000000e+00	-4.894741e-03	
491	3.250000e+00	3.000000e+00	-4.898281e-03	
492	3.300000e+00	3.000000e+00	-4.902063e-03	
493	3.350000e+00	3.000000e+00	-4.906162e-03	
494	3.400000e+00	3.000000e+00	-4.910663e-03	
495	3.450000e+00	3.000000e+00	-4.915667e-03	
496	3.500000e+00	3.000000e+00	-4.921294e-03	
497	0.000000e+00	3.500000e+00	3.611119e-35	
498	5.000000e-02	3.500000e+00	-4.617146e-04	
499	1.000000e-01	3.500000e+00	-8.955129e-04	
500	1.500000e-01	3.500000e+00	-1.303176e-03	
501	2.000000e-01	3.500000e+00	-1.686337e-03	
502	2.500000e-01	3.500000e+00	-2.046491e-03	
503	3.000000e-01	3.500000e+00	-2.385014e-03	
504	3.500000e-01	3.500000e+00	-2.703170e-03	
505	4.000000e-01	3.500000e+00	-3.002121e-03	
506	4.500000e-01	3.500000e+00	-3.282937e-03	
507	5.000000e-01	3.500000e+00	-3.546600e-03	
508	5.500000e-01	3.500000e+00	-3.794008e-03	
509	6.000000e-01	3.500000e+00	-4.025980e-03	
510	6.500000e-01	3.500000e+00	-4.243252e-03	
511	7.000000e-01	3.500000e+00	-4.446471e-03	
512	7.500000e-01	3.500000e+00	-4.636186e-03	
513	8.000000e-01	3.500000e+00	-4.812825e-03	
514	8.500000e-01	3.500000e+00	-4.976661e-03	
515	9.000000e-01	3.500000e+00	-5.127763e-03	
516	9.500000e-01	3.500000e+00	-5.265944e-03	
517	1.000000e+00	3.500000e+00	-5.390723e-03	
518	1.050000e+00	3.500000e+00	-5.501397e-03	

Index   sweep           v(1)            vds#branch      
--------------------------------------------------------------------------------
519	1.100000e+00	3.500000e+00	-5.597306e-03	
520	1.150000e+00	3.500000e+00	-5.678292e-03	
521	1.200000e+00	3.500000e+00	-5.745097e-03	
522	1.250000e+00	3.500000e+00	-5.799354e-03	
523	1.300000e+00	3.500000e+00	-5.843183e-03	
524	1.350000e+00	3.500000e+00	-5.878712e-03	
525	1.400000e+00	3.500000e+00	-5.907790e-03	
526	1.450000e+00	3.500000e+00	-5.931894e-03	
527	1.500000e+00	3.500000e+00	-5.952155e-03	
528	1.550000e+00	3.500000e+00	-5.969425e-03	
529	1.600000e+00	3.500000e+00	-5.984342e-03	
530	1.650000e+00	3.500000e+00	-5.997388e-03	
531	1.700000e+00	3.500000e+00	-6.008927e-03	
532	1.750000e+00	3.500000e+00	-6.019239e-03	
533	1.800000e+00	3.500000e+00	-6.028540e-03	
534	1.850000e+00	3.500000e+00	-6.037002e-03	
535	1.900000e+00	3.500000e+00	-6.044760e-03	
536	1.950000e+00	3.500000e+00	-6.051921e-03	
537	2.000000e+00	3.500000e+00	-6.058572e-03	
538	2.050000e+00	3.500000e+00	-6.064787e-03	
539	2.100000e+00	3.500000e+00	-6.070622e-03	
540	2.150000e+00	3.500000e+00	-6.076129e-03	
541	2.200000e+00	3.500000e+00	-6.081346e-03	
542	2.250000e+00	3.500000e+00	-6.086309e-03	
543	2.300000e+00	3.500000e+00	-6.091048e-03	
544	2.350000e+00	3.500000e+00	-6.095586e-03	
545	2.400000e+00	3.500000e+00	-6.099946e-03	
546	2.450000e+00	3.500000e+00	-6.104147e-03	
547	2.500000e+00	3.500000e+00	-6.108203e-03	
548	2.550000e+00	3.500000e+00	-6.112130e-03	
549	2.600000e+00	3.500000e+00	-6.115939e-03	
550	2.650000e+00	3.500000e+00	-6.119643e-03	
551	2.700000e+00	3.500000e+00	-6.123250e-03	
552	2.750000e+00	3.500000e+00	-6.126770e-03	
553	2.800000e+00	3.500000e+00	-6.130213e-03	
554	2.850000e+00	3.500000e+00	-6.133587e-03	
555	2.900000e+00	3.500000e+00	-6.136902e-03	
556	2.950000e+00	3.500000e+00	-6.140168e-03	
557	3.000000e+00	3.500000e+00	-6.143398e-03	
558	3.050000e+00	3.500000e+00	-6.146605e-03	
559	3.100000e+00	3.500000e+00	-6.149807e-03	
560	3.150000e+00	3.500000e+00	-6.153027e-03	
561	3.200000e+00	3.500000e+00	-6.156291e-03	
562	3.250000e+00	3.500000e+00	-6.159633e-03	
563	3.300000e+00	3.500000e+00	-6.163095e-03	
564	3.350000e+00	3.500000e+00	-6.166727e-03	
565	3.400000e+00	3.500000e+00	-6.170594e-03	
566	3.450000e+00	3.500000e+00	-6.174771e-03	
567	3.500000e+00	3.500000e+00	-6.179348e-03	

CPU time since last call: 0.360 seconds.

Total CPU time: 0.360 seconds.

Current dynamic memory usage = 188416,
Dynamic memory limit = 2147368959.

