Circuit: *** Edge detector ***

Error on line 81 : .control
	 Unknown control card
Error on line 82 : .endc
	 Unknown control card
Limiting rise time of source vclk to 5e-011
Limiting fall time of source vclk to 5e-011
Limiting rise time of source va to 5e-009
Limiting fall time of source va to 5e-009
Direct Newton iteration for .op point succeeded.
Heightened Def Con from 5.49941e-010 +++++++++++++++++++++++to 5.49941e-010
Heightened Def Con from 5.49941e-010 ++++++++++++++++++++++++to 5.49941e-010
Heightened Def Con from 5.49941e-010 +++++++++++++++++++++++++to 5.50118e-010
Heightened Def Con from 1.05006e-009 ++++++++++++to 1.05006e-009
Heightened Def Con from 1.05006e-009 to 1.0821e-009
Heightened Def Con from 1.54994e-009 to 1.54994e-009
Heightened Def Con from 1.54994e-009 ++++++++++++++++++++++++to 1.54994e-009
Heightened Def Con from 1.54994e-009 +++++++++++++++++++++++++to 1.87953e-009
Heightened Def Con from 2.05006e-009 ++++++++++++to 2.05006e-009
Heightened Def Con from 2.05006e-009 to 2.0821e-009
Heightened Def Con from 2.54994e-009 to 2.54994e-009
Heightened Def Con from 2.54994e-009 ++++++++++++++++++++++++to 2.54994e-009
Heightened Def Con from 2.54994e-009 +++++++++++++++++++++++++to 2.87953e-009
Heightened Def Con from 3.05006e-009 ++++++++++++to 3.05006e-009
Heightened Def Con from 3.05006e-009 to 3.0821e-009
Heightened Def Con from 3.54994e-009 to 3.54994e-009
Heightened Def Con from 3.54994e-009 ++++++++++++++++++++++++to 3.54994e-009
Heightened Def Con from 3.54994e-009 +++++++++++++++++++++++++to 3.87953e-009
Heightened Def Con from 4.05006e-009 ++++++++++++to 4.05006e-009
Heightened Def Con from 4.05006e-009 to 4.0821e-009
Heightened Def Con from 4.54994e-009 to 4.54994e-009
Heightened Def Con from 4.54994e-009 ++++++++++++++++++++++++to 4.54994e-009
Heightened Def Con from 4.54994e-009 +++++++++++++++++++++++++to 4.87953e-009
Heightened Def Con from 5.05006e-009 ++++++++++++to 5.05006e-009
Heightened Def Con from 5.05006e-009 to 5.0821e-009
Heightened Def Con from 5.54994e-009 to 5.54994e-009
Heightened Def Con from 5.54994e-009 ++++++++++++++++++++++++to 5.54994e-009
Heightened Def Con from 5.54994e-009 +++++++++++++++++++++++++to 5.87953e-009
Heightened Def Con from 6.05006e-009 ++++++++++++to 6.05006e-009
Heightened Def Con from 6.05006e-009 to 6.0821e-009
Heightened Def Con from 6.54994e-009 to 6.54994e-009
Heightened Def Con from 6.54994e-009 ++++++++++++++++++++++++to 6.54994e-009
Heightened Def Con from 6.54994e-009 +++++++++++++++++++++++++to 6.87953e-009
Heightened Def Con from 7.05006e-009 ++++++++++++to 7.05006e-009
Heightened Def Con from 7.05006e-009 to 7.0821e-009
Heightened Def Con from 7.54994e-009 to 7.54994e-009
Heightened Def Con from 7.54994e-009 ++++++++++++++++++++++++to 7.54994e-009
Heightened Def Con from 7.54994e-009 +++++++++++++++++++++++++to 7.87953e-009
Heightened Def Con from 8.05006e-009 ++++++++++++to 8.05006e-009
Heightened Def Con from 8.05006e-009 to 8.0821e-009
Heightened Def Con from 8.54994e-009 to 8.54994e-009
Heightened Def Con from 8.54994e-009 ++++++++++++++++++++++++to 8.54994e-009
Heightened Def Con from 8.54994e-009 +++++++++++++++++++++++++to 8.87953e-009
Heightened Def Con from 9.05006e-009 ++++++++++++to 9.05006e-009
Heightened Def Con from 9.05006e-009 to 9.0821e-009
Heightened Def Con from 9.54994e-009 to 9.54994e-009
Heightened Def Con from 9.54994e-009 ++++++++++++++++++++++++to 9.54994e-009
Heightened Def Con from 9.54994e-009 +++++++++++++++++++++++++to 9.87953e-009
Heightened Def Con from 1.00501e-008 ++++++++++++to 1.00501e-008
Heightened Def Con from 1.00501e-008 to 1.00821e-008
Heightened Def Con from 1.05499e-008 to 1.05499e-008
Heightened Def Con from 1.05499e-008 ++++++++++++++++++++++++to 1.05499e-008
Heightened Def Con from 1.05499e-008 +++++++++++++++++++++++++to 1.08795e-008
Heightened Def Con from 1.10501e-008 ++++++++++++to 1.10501e-008
Heightened Def Con from 1.10501e-008 to 1.10821e-008
Heightened Def Con from 1.15499e-008 to 1.15499e-008
Heightened Def Con from 1.15499e-008 ++++++++++++++++++++++++to 1.15499e-008
Heightened Def Con from 1.15499e-008 +++++++++++++++++++++++++to 1.18795e-008
Heightened Def Con from 1.20501e-008 ++++++++++++to 1.20501e-008
Heightened Def Con from 1.20501e-008 to 1.20821e-008
Heightened Def Con from 1.25499e-008 to 1.25499e-008
Heightened Def Con from 1.25499e-008 ++++++++++++++++++++++++to 1.25499e-008
Heightened Def Con from 1.25499e-008 +++++++++++++++++++++++++to 1.28795e-008
Heightened Def Con from 1.30501e-008 ++++++++++++to 1.30501e-008
Heightened Def Con from 1.30501e-008 to 1.30821e-008
Heightened Def Con from 1.35499e-008 to 1.35499e-008
Heightened Def Con from 1.35499e-008 ++++++++++++++++++++++++to 1.35499e-008
Heightened Def Con from 1.35499e-008 +++++++++++++++++++++++++to 1.38795e-008
Heightened Def Con from 1.40501e-008 ++++++++++++to 1.40501e-008
Heightened Def Con from 1.40501e-008 to 1.40821e-008
Heightened Def Con from 1.45499e-008 to 1.45499e-008
Heightened Def Con from 1.45499e-008 ++++++++++++++++++++++++to 1.45499e-008
Heightened Def Con from 1.45499e-008 +++++++++++++++++++++++++to 1.48795e-008
Heightened Def Con from 1.50501e-008 ++++++++++++to 1.50501e-008
Heightened Def Con from 1.50501e-008 to 1.50821e-008
Heightened Def Con from 1.55499e-008 to 1.55499e-008
Heightened Def Con from 1.55499e-008 ++++++++++++++++++++++++to 1.55499e-008
Heightened Def Con from 1.55499e-008 +++++++++++++++++++++++++to 1.58795e-008
Heightened Def Con from 1.60501e-008 ++++++++++++to 1.60501e-008
Heightened Def Con from 1.60501e-008 to 1.60821e-008
Heightened Def Con from 1.65499e-008 to 1.65499e-008
Heightened Def Con from 1.65499e-008 ++++++++++++++++++++++++to 1.65499e-008
Heightened Def Con from 1.65499e-008 +++++++++++++++++++++++++to 1.68795e-008
Heightened Def Con from 1.70501e-008 ++++++++++++to 1.70501e-008
Heightened Def Con from 1.70501e-008 to 1.70821e-008
Heightened Def Con from 1.75499e-008 to 1.75499e-008
Heightened Def Con from 1.75499e-008 ++++++++++++++++++++++++to 1.75499e-008
Heightened Def Con from 1.75499e-008 +++++++++++++++++++++++++to 1.78795e-008
Heightened Def Con from 1.80501e-008 ++++++++++++to 1.80501e-008
Heightened Def Con from 1.80501e-008 to 1.80821e-008
Heightened Def Con from 1.85499e-008 to 1.85499e-008
Heightened Def Con from 1.85499e-008 ++++++++++++++++++++++++to 1.85499e-008
Heightened Def Con from 1.85499e-008 +++++++++++++++++++++++++to 1.88795e-008
Heightened Def Con from 1.90501e-008 ++++++++++++to 1.90501e-008
Heightened Def Con from 1.90501e-008 to 1.90821e-008
Heightened Def Con from 1.95499e-008 to 1.95499e-008
Heightened Def Con from 1.95499e-008 ++++++++++++++++++++++++to 1.95499e-008
Heightened Def Con from 1.95499e-008 +++++++++++++++++++++++++to 1.98795e-008
Heightened Def Con from 2.00501e-008 ++++++++++++to 2.00501e-008
Heightened Def Con from 2.00501e-008 to 2.00821e-008
Heightened Def Con from 2.05499e-008 to 2.05499e-008
Heightened Def Con from 2.05499e-008 ++++++++++++++++++++++++to 2.05499e-008
Heightened Def Con from 2.05499e-008 +++++++++++++++++++++++++to 2.08795e-008
Heightened Def Con from 2.10501e-008 ++++++++++++to 2.10501e-008
Heightened Def Con from 2.10501e-008 to 2.10821e-008
Heightened Def Con from 2.15499e-008 to 2.15499e-008
Heightened Def Con from 2.15499e-008 ++++++++++++++++++++++++to 2.15499e-008
Heightened Def Con from 2.15499e-008 +++++++++++++++++++++++++to 2.18795e-008
Heightened Def Con from 2.20501e-008 ++++++++++++to 2.20501e-008
Heightened Def Con from 2.20501e-008 to 2.20821e-008
Heightened Def Con from 2.25499e-008 to 2.25499e-008
Heightened Def Con from 2.25499e-008 ++++++++++++++++++++++++to 2.25499e-008
Heightened Def Con from 2.25499e-008 +++++++++++++++++++++++++to 2.28795e-008
Heightened Def Con from 2.30501e-008 ++++++++++++to 2.30501e-008
Heightened Def Con from 2.30501e-008 to 2.30821e-008
Heightened Def Con from 2.35499e-008 to 2.35499e-008
Heightened Def Con from 2.35499e-008 ++++++++++++++++++++++++to 2.35499e-008
Heightened Def Con from 2.35499e-008 +++++++++++++++++++++++++to 2.38795e-008
Heightened Def Con from 2.40501e-008 ++++++++++++to 2.40501e-008
Heightened Def Con from 2.40501e-008 to 2.40821e-008
Heightened Def Con from 2.45499e-008 to 2.45499e-008
Heightened Def Con from 2.45499e-008 ++++++++++++++++++++++++to 2.45499e-008
Heightened Def Con from 2.45499e-008 +++++++++++++++++++++++++to 2.48795e-008
Heightened Def Con from 2.50501e-008 ++++++++++++to 2.50501e-008
Heightened Def Con from 2.50501e-008 to 2.50821e-008
Heightened Def Con from 2.55499e-008 to 2.55499e-008
Heightened Def Con from 2.55499e-008 ++++++++++++++++++++++++to 2.55499e-008
Heightened Def Con from 2.55499e-008 +++++++++++++++++++++++++to 2.58795e-008
Heightened Def Con from 2.60501e-008 ++++++++++++to 2.60501e-008
Heightened Def Con from 2.60501e-008 to 2.60821e-008
Heightened Def Con from 2.65499e-008 to 2.65499e-008
Heightened Def Con from 2.65499e-008 ++++++++++++++++++++++++to 2.65499e-008
Heightened Def Con from 2.65499e-008 +++++++++++++++++++++++++to 2.68795e-008
Heightened Def Con from 2.70501e-008 ++++++++++++to 2.70501e-008
Heightened Def Con from 2.70501e-008 to 2.70821e-008
Heightened Def Con from 2.75499e-008 to 2.75499e-008
Heightened Def Con from 2.75499e-008 ++++++++++++++++++++++++to 2.75499e-008
Heightened Def Con from 2.75499e-008 +++++++++++++++++++++++++to 2.78795e-008
Heightened Def Con from 2.80501e-008 ++++++++++++to 2.80501e-008
Heightened Def Con from 2.80501e-008 to 2.80821e-008
Heightened Def Con from 2.85499e-008 to 2.85499e-008
Heightened Def Con from 2.85499e-008 ++++++++++++++++++++++++to 2.85499e-008
Heightened Def Con from 2.85499e-008 +++++++++++++++++++++++++to 2.88795e-008
Heightened Def Con from 2.90501e-008 ++++++++++++to 2.90501e-008
Heightened Def Con from 2.90501e-008 to 2.90821e-008
Heightened Def Con from 2.95499e-008 to 2.95499e-008
Heightened Def Con from 2.95499e-008 ++++++++++++++++++++++++to 2.95499e-008
Heightened Def Con from 2.95499e-008 +++++++++++++++++++++++++to 2.98795e-008
Heightened Def Con from 3.00501e-008 ++++++++++++to 3.00501e-008
Heightened Def Con from 3.00501e-008 to 3.00821e-008
Heightened Def Con from 3.05499e-008 to 3.05499e-008
Heightened Def Con from 3.05499e-008 ++++++++++++++++++++++++to 3.05499e-008
Heightened Def Con from 3.05499e-008 +++++++++++++++++++++++++to 3.08795e-008
Heightened Def Con from 3.10501e-008 ++++++++++++to 3.10501e-008
Heightened Def Con from 3.10501e-008 to 3.10821e-008
Heightened Def Con from 3.15499e-008 to 3.15499e-008
Heightened Def Con from 3.15499e-008 ++++++++++++++++++++++++to 3.15499e-008
Heightened Def Con from 3.15499e-008 +++++++++++++++++++++++++to 3.18795e-008
Heightened Def Con from 3.20501e-008 ++++++++++++to 3.20501e-008
Heightened Def Con from 3.20501e-008 to 3.20821e-008
Heightened Def Con from 3.25499e-008 to 3.25499e-008
Heightened Def Con from 3.25499e-008 ++++++++++++++++++++++++to 3.25499e-008
Heightened Def Con from 3.25499e-008 +++++++++++++++++++++++++to 3.28795e-008
Heightened Def Con from 3.30501e-008 ++++++++++++to 3.30501e-008
Heightened Def Con from 3.30501e-008 to 3.30821e-008
Heightened Def Con from 3.35499e-008 to 3.35499e-008
Heightened Def Con from 3.35499e-008 ++++++++++++++++++++++++to 3.35499e-008
Heightened Def Con from 3.35499e-008 +++++++++++++++++++++++++to 3.38795e-008
Heightened Def Con from 3.40501e-008 ++++++++++++to 3.40501e-008
Heightened Def Con from 3.40501e-008 to 3.40821e-008
Heightened Def Con from 3.45499e-008 to 3.45499e-008
Heightened Def Con from 3.45499e-008 ++++++++++++++++++++++++to 3.45499e-008
Heightened Def Con from 3.45499e-008 +++++++++++++++++++++++++to 3.48795e-008
Heightened Def Con from 3.50501e-008 ++++++++++++to 3.50501e-008
Heightened Def Con from 3.50501e-008 to 3.50821e-008
Heightened Def Con from 3.55499e-008 to 3.55499e-008
Heightened Def Con from 3.55499e-008 ++++++++++++++++++++++++to 3.55499e-008
Heightened Def Con from 3.55499e-008 +++++++++++++++++++++++++to 3.58795e-008
Heightened Def Con from 3.60501e-008 ++++++++++++to 3.60501e-008
Heightened Def Con from 3.60501e-008 to 3.60821e-008
Heightened Def Con from 3.65499e-008 to 3.65499e-008
Heightened Def Con from 3.65499e-008 ++++++++++++++++++++++++to 3.65499e-008
Heightened Def Con from 3.65499e-008 +++++++++++++++++++++++++to 3.68795e-008
Heightened Def Con from 3.70501e-008 ++++++++++++to 3.70501e-008
Heightened Def Con from 3.70501e-008 to 3.70821e-008
Heightened Def Con from 3.75499e-008 to 3.75499e-008
Heightened Def Con from 3.75499e-008 ++++++++++++++++++++++++to 3.75499e-008
Heightened Def Con from 3.75499e-008 +++++++++++++++++++++++++to 3.78795e-008
Heightened Def Con from 3.80501e-008 ++++++++++++to 3.80501e-008
Heightened Def Con from 3.80501e-008 to 3.80821e-008
Heightened Def Con from 3.85499e-008 to 3.85499e-008
Heightened Def Con from 3.85499e-008 ++++++++++++++++++++++++to 3.85499e-008
Heightened Def Con from 3.85499e-008 +++++++++++++++++++++++++to 3.88795e-008
Heightened Def Con from 3.90501e-008 ++++++++++++to 3.90501e-008
Heightened Def Con from 3.90501e-008 to 3.90821e-008
Heightened Def Con from 3.95499e-008 to 3.95499e-008
Heightened Def Con from 3.95499e-008 ++++++++++++++++++++++++to 3.95499e-008
Heightened Def Con from 3.95499e-008 +++++++++++++++++++++++++to 3.98795e-008
Heightened Def Con from 4.00501e-008 ++++++++++++to 4.00501e-008
Heightened Def Con from 4.00501e-008 to 4.00821e-008
Heightened Def Con from 4.05499e-008 to 4.05499e-008
Heightened Def Con from 4.05499e-008 ++++++++++++++++++++++++to 4.05499e-008
Heightened Def Con from 4.05499e-008 +++++++++++++++++++++++++to 4.08795e-008
Heightened Def Con from 4.10501e-008 ++++++++++++to 4.10501e-008
Heightened Def Con from 4.10501e-008 to 4.10821e-008
Heightened Def Con from 4.15499e-008 to 4.15499e-008
Heightened Def Con from 4.15499e-008 ++++++++++++++++++++++++to 4.15499e-008
Heightened Def Con from 4.15499e-008 +++++++++++++++++++++++++to 4.18795e-008
Heightened Def Con from 4.20501e-008 ++++++++++++to 4.20501e-008
Heightened Def Con from 4.20501e-008 to 4.20821e-008
Heightened Def Con from 4.25499e-008 to 4.25499e-008
Heightened Def Con from 4.25499e-008 ++++++++++++++++++++++++to 4.25499e-008
Heightened Def Con from 4.25499e-008 +++++++++++++++++++++++++to 4.28795e-008
Heightened Def Con from 4.30501e-008 ++++++++++++to 4.30501e-008
Heightened Def Con from 4.30501e-008 to 4.30821e-008
Heightened Def Con from 4.35499e-008 to 4.35499e-008
Heightened Def Con from 4.35499e-008 ++++++++++++++++++++++++to 4.35499e-008
Heightened Def Con from 4.35499e-008 +++++++++++++++++++++++++to 4.38795e-008
Heightened Def Con from 4.40501e-008 ++++++++++++to 4.40501e-008
Heightened Def Con from 4.40501e-008 to 4.40821e-008
Heightened Def Con from 4.45499e-008 to 4.45499e-008
Heightened Def Con from 4.45499e-008 ++++++++++++++++++++++++to 4.45499e-008
Heightened Def Con from 4.45499e-008 +++++++++++++++++++++++++to 4.48795e-008
Heightened Def Con from 4.50501e-008 ++++++++++++to 4.50501e-008
Heightened Def Con from 4.50501e-008 to 4.50821e-008
Heightened Def Con from 4.55499e-008 to 4.55499e-008
Heightened Def Con from 4.55499e-008 ++++++++++++++++++++++++to 4.55499e-008
Heightened Def Con from 4.55499e-008 +++++++++++++++++++++++++to 4.58795e-008
Heightened Def Con from 4.60501e-008 ++++++++++++to 4.60501e-008
Heightened Def Con from 4.60501e-008 to 4.60821e-008
Heightened Def Con from 4.65499e-008 to 4.65499e-008
Heightened Def Con from 4.65499e-008 ++++++++++++++++++++++++to 4.65499e-008
Heightened Def Con from 4.65499e-008 +++++++++++++++++++++++++to 4.68795e-008
Heightened Def Con from 4.70501e-008 ++++++++++++to 4.70501e-008
Heightened Def Con from 4.70501e-008 to 4.70821e-008
Heightened Def Con from 4.75499e-008 to 4.75499e-008
Heightened Def Con from 4.75499e-008 ++++++++++++++++++++++++to 4.75499e-008
Heightened Def Con from 4.75499e-008 +++++++++++++++++++++++++to 4.78795e-008
Heightened Def Con from 4.80501e-008 ++++++++++++to 4.80501e-008
Heightened Def Con from 4.80501e-008 to 4.80821e-008
Heightened Def Con from 4.85499e-008 to 4.85499e-008
Heightened Def Con from 4.85499e-008 ++++++++++++++++++++++++to 4.85499e-008
Heightened Def Con from 4.85499e-008 +++++++++++++++++++++++++to 4.88795e-008
Heightened Def Con from 4.90501e-008 ++++++++++++to 4.90501e-008
Heightened Def Con from 4.90501e-008 to 4.90821e-008
Heightened Def Con from 4.95499e-008 to 4.95499e-008
Heightened Def Con from 4.95499e-008 ++++++++++++++++++++++++to 4.95499e-008
Heightened Def Con from 4.95499e-008 +++++++++++++++++++++++++to 5.00037e-008
Heightened Def Con from 5.00126e-008 ++++++++++++++++++++to 5.00126e-008
Heightened Def Con from 5.00126e-008 ++++++++++++++++++++to 5.00126e-008
Heightened Def Con from 5.00126e-008 to 5.00498e-008
Heightened Def Con from 5.00504e-008 +++++++++++++++++++++++++++to 5.00561e-008
Heightened Def Con from 5.05453e-008 ++++++++++++++++++++++++to 5.05455e-008
Heightened Def Con from 5.10586e-008 +++++++++++++++++++++++++++to 5.10588e-008
Heightened Def Con from 5.15383e-008 to 5.18358e-008
Heightened Def Con from 5.20646e-008 +++++++++++++++++++++++++++to 5.20647e-008
Heightened Def Con from 5.25355e-008 to 5.28331e-008
Heightened Def Con from 5.30562e-008 +++++++++++++++++++++++++++to 5.30564e-008
Heightened Def Con from 5.35471e-008 ++++++++++++++++++++++++to 5.35473e-008
Heightened Def Con from 5.40511e-008 to 5.41426e-008
Heightened Def Con from 5.45499e-008 +++++++++++++++++++++++to 5.45499e-008
Heightened Def Con from 5.45499e-008 +++++++++++++++++++++++to 5.45865e-008
Heightened Def Con from 5.47084e-008 +++++++++++++++++++to 5.47084e-008
Heightened Def Con from 5.47084e-008 ++++++++++++++++++to 5.47084e-008
Heightened Def Con from 5.47084e-008 ++++++++++++++++++to 5.47084e-008
Heightened Def Con from 5.47084e-008 ++++++++++++++++++to 5.47084e-008
Heightened Def Con from 5.47084e-008 to 5.47096e-008
Heightened Def Con from 5.50501e-008 +++++++++++to 5.50501e-008
Heightened Def Con from 5.50501e-008 to 5.50821e-008
Heightened Def Con from 5.55499e-008 ++++++++++++++++++++++++to 5.55499e-008
Heightened Def Con from 5.55499e-008 +++++++++++++++++++++++++to 5.58795e-008
Heightened Def Con from 5.60501e-008 +++++++++++to 5.60501e-008
Heightened Def Con from 5.60501e-008 to 5.60821e-008
Heightened Def Con from 5.65499e-008 ++++++++++++++++++++++++to 5.65499e-008
Heightened Def Con from 5.65499e-008 +++++++++++++++++++++++++to 5.68795e-008
Heightened Def Con from 5.70501e-008 +++++++++++to 5.70501e-008
Heightened Def Con from 5.70501e-008 to 5.70821e-008
Heightened Def Con from 5.75499e-008 ++++++++++++++++++++++++to 5.75499e-008
Heightened Def Con from 5.75499e-008 +++++++++++++++++++++++++to 5.78795e-008
Heightened Def Con from 5.80501e-008 +++++++++++to 5.80501e-008
Heightened Def Con from 5.80501e-008 to 5.80821e-008
Heightened Def Con from 5.85499e-008 ++++++++++++++++++++++++to 5.85499e-008
Heightened Def Con from 5.85499e-008 +++++++++++++++++++++++++to 5.88795e-008
Heightened Def Con from 5.90501e-008 +++++++++++to 5.90501e-008
Heightened Def Con from 5.90501e-008 to 5.90821e-008
Heightened Def Con from 5.95499e-008 ++++++++++++++++++++++++to 5.95499e-008
Heightened Def Con from 5.95499e-008 +++++++++++++++++++++++++to 5.98795e-008
Heightened Def Con from 6.00501e-008 +++++++++++to 6.00501e-008
Heightened Def Con from 6.00501e-008 to 6.00821e-008
Heightened Def Con from 6.05499e-008 ++++++++++++++++++++++++to 6.05499e-008
Heightened Def Con from 6.05499e-008 +++++++++++++++++++++++++to 6.08795e-008
Heightened Def Con from 6.10501e-008 +++++++++++to 6.10501e-008
Heightened Def Con from 6.10501e-008 to 6.10821e-008
Heightened Def Con from 6.15499e-008 ++++++++++++++++++++++++to 6.15499e-008
Heightened Def Con from 6.15499e-008 +++++++++++++++++++++++++to 6.18795e-008
Heightened Def Con from 6.20501e-008 +++++++++++to 6.20501e-008
Heightened Def Con from 6.20501e-008 to 6.20821e-008
Heightened Def Con from 6.25499e-008 ++++++++++++++++++++++++to 6.25499e-008
Heightened Def Con from 6.25499e-008 +++++++++++++++++++++++++to 6.28795e-008
Heightened Def Con from 6.30501e-008 +++++++++++to 6.30501e-008
Heightened Def Con from 6.30501e-008 to 6.30821e-008
Heightened Def Con from 6.35499e-008 ++++++++++++++++++++++++to 6.35499e-008
Heightened Def Con from 6.35499e-008 +++++++++++++++++++++++++to 6.38795e-008
Heightened Def Con from 6.40501e-008 +++++++++++to 6.40501e-008
Heightened Def Con from 6.40501e-008 to 6.40821e-008
Heightened Def Con from 6.45499e-008 ++++++++++++++++++++++++to 6.45499e-008
Heightened Def Con from 6.45499e-008 +++++++++++++++++++++++++to 6.48795e-008
Heightened Def Con from 6.50501e-008 +++++++++++to 6.50501e-008
Heightened Def Con from 6.50501e-008 to 6.50821e-008
Heightened Def Con from 6.55499e-008 ++++++++++++++++++++++++to 6.55499e-008
Heightened Def Con from 6.55499e-008 +++++++++++++++++++++++++to 6.58795e-008
Heightened Def Con from 6.60501e-008 +++++++++++to 6.60501e-008
Heightened Def Con from 6.60501e-008 to 6.60821e-008
Heightened Def Con from 6.65499e-008 ++++++++++++++++++++++++to 6.65499e-008
Heightened Def Con from 6.65499e-008 +++++++++++++++++++++++++to 6.68795e-008
Heightened Def Con from 6.70501e-008 +++++++++++to 6.70501e-008
Heightened Def Con from 6.70501e-008 to 6.70821e-008
Heightened Def Con from 6.75499e-008 ++++++++++++++++++++++++to 6.75499e-008
Heightened Def Con from 6.75499e-008 +++++++++++++++++++++++++to 6.78795e-008
Heightened Def Con from 6.80501e-008 +++++++++++to 6.80501e-008
Heightened Def Con from 6.80501e-008 to 6.80821e-008
Heightened Def Con from 6.85499e-008 ++++++++++++++++++++++++to 6.85499e-008
Heightened Def Con from 6.85499e-008 +++++++++++++++++++++++++to 6.88795e-008
Heightened Def Con from 6.90501e-008 +++++++++++to 6.90501e-008
Heightened Def Con from 6.90501e-008 to 6.90821e-008
Heightened Def Con from 6.95499e-008 ++++++++++++++++++++++++to 6.95499e-008
Heightened Def Con from 6.95499e-008 +++++++++++++++++++++++++to 6.98795e-008
Heightened Def Con from 7.00501e-008 +++++++++++to 7.00501e-008
Heightened Def Con from 7.00501e-008 to 7.00821e-008
Heightened Def Con from 7.05499e-008 ++++++++++++++++++++++++to 7.05499e-008
Heightened Def Con from 7.05499e-008 +++++++++++++++++++++++++to 7.08795e-008
Heightened Def Con from 7.10501e-008 +++++++++++to 7.10501e-008
Heightened Def Con from 7.10501e-008 to 7.10821e-008
Heightened Def Con from 7.15499e-008 ++++++++++++++++++++++++to 7.15499e-008
Heightened Def Con from 7.15499e-008 +++++++++++++++++++++++++to 7.18795e-008
Heightened Def Con from 7.20501e-008 +++++++++++to 7.20501e-008
Heightened Def Con from 7.20501e-008 to 7.20821e-008
Heightened Def Con from 7.25499e-008 ++++++++++++++++++++++++to 7.25499e-008
Heightened Def Con from 7.25499e-008 +++++++++++++++++++++++++to 7.28795e-008
Heightened Def Con from 7.30501e-008 +++++++++++to 7.30501e-008
Heightened Def Con from 7.30501e-008 to 7.30821e-008
Heightened Def Con from 7.35499e-008 ++++++++++++++++++++++++to 7.35499e-008
Heightened Def Con from 7.35499e-008 +++++++++++++++++++++++++to 7.38795e-008
Heightened Def Con from 7.40501e-008 +++++++++++to 7.40501e-008
Heightened Def Con from 7.40501e-008 to 7.40821e-008
Heightened Def Con from 7.45499e-008 ++++++++++++++++++++++++to 7.45499e-008
Heightened Def Con from 7.45499e-008 +++++++++++++++++++++++++to 7.48795e-008
Heightened Def Con from 7.50501e-008 +++++++++++to 7.50501e-008
Heightened Def Con from 7.50501e-008 to 7.50821e-008
Heightened Def Con from 7.55499e-008 ++++++++++++++++++++++++to 7.55499e-008
Heightened Def Con from 7.55499e-008 +++++++++++++++++++++++++to 7.58795e-008
Heightened Def Con from 7.60501e-008 +++++++++++to 7.60501e-008
Heightened Def Con from 7.60501e-008 to 7.60821e-008
Heightened Def Con from 7.65499e-008 ++++++++++++++++++++++++to 7.65499e-008
Heightened Def Con from 7.65499e-008 +++++++++++++++++++++++++to 7.68795e-008
Heightened Def Con from 7.70501e-008 +++++++++++to 7.70501e-008
Heightened Def Con from 7.70501e-008 to 7.70821e-008
Heightened Def Con from 7.75499e-008 ++++++++++++++++++++++++to 7.75499e-008
Heightened Def Con from 7.75499e-008 +++++++++++++++++++++++++to 7.78795e-008
Heightened Def Con from 7.80501e-008 +++++++++++to 7.80501e-008
Heightened Def Con from 7.80501e-008 to 7.80821e-008
Heightened Def Con from 7.85499e-008 ++++++++++++++++++++++++to 7.85499e-008
Heightened Def Con from 7.85499e-008 +++++++++++++++++++++++++to 7.88795e-008
Heightened Def Con from 7.90501e-008 +++++++++++to 7.90501e-008
Heightened Def Con from 7.90501e-008 to 7.90821e-008
Heightened Def Con from 7.95499e-008 ++++++++++++++++++++++++to 7.95499e-008
Heightened Def Con from 7.95499e-008 +++++++++++++++++++++++++to 7.98795e-008
Heightened Def Con from 8.00501e-008 +++++++++++to 8.00501e-008
Heightened Def Con from 8.00501e-008 to 8.00821e-008
Heightened Def Con from 8.05499e-008 ++++++++++++++++++++++++to 8.05499e-008
Heightened Def Con from 8.05499e-008 +++++++++++++++++++++++++to 8.08795e-008
Heightened Def Con from 8.10501e-008 +++++++++++to 8.10501e-008
Heightened Def Con from 8.10501e-008 to 8.10821e-008
Heightened Def Con from 8.15499e-008 ++++++++++++++++++++++++to 8.15499e-008
Heightened Def Con from 8.15499e-008 +++++++++++++++++++++++++to 8.18795e-008
Heightened Def Con from 8.20501e-008 +++++++++++to 8.20501e-008
Heightened Def Con from 8.20501e-008 to 8.20821e-008
Heightened Def Con from 8.25499e-008 ++++++++++++++++++++++++to 8.25499e-008
Heightened Def Con from 8.25499e-008 +++++++++++++++++++++++++to 8.28795e-008
Heightened Def Con from 8.30501e-008 +++++++++++to 8.30501e-008
Heightened Def Con from 8.30501e-008 to 8.30821e-008
Heightened Def Con from 8.35499e-008 ++++++++++++++++++++++++to 8.35499e-008
Heightened Def Con from 8.35499e-008 +++++++++++++++++++++++++to 8.38795e-008
Heightened Def Con from 8.40501e-008 +++++++++++to 8.40501e-008
Heightened Def Con from 8.40501e-008 to 8.40821e-008
Heightened Def Con from 8.45499e-008 ++++++++++++++++++++++++to 8.45499e-008
Heightened Def Con from 8.45499e-008 +++++++++++++++++++++++++to 8.48795e-008
Heightened Def Con from 8.50501e-008 +++++++++++to 8.50501e-008
Heightened Def Con from 8.50501e-008 to 8.50821e-008
Heightened Def Con from 8.55499e-008 ++++++++++++++++++++++++to 8.55499e-008
Heightened Def Con from 8.55499e-008 +++++++++++++++++++++++++to 8.58795e-008
Heightened Def Con from 8.60501e-008 +++++++++++to 8.60501e-008
Heightened Def Con from 8.60501e-008 to 8.60821e-008
Heightened Def Con from 8.65499e-008 ++++++++++++++++++++++++to 8.65499e-008
Heightened Def Con from 8.65499e-008 +++++++++++++++++++++++++to 8.68795e-008
Heightened Def Con from 8.70501e-008 +++++++++++to 8.70501e-008
Heightened Def Con from 8.70501e-008 to 8.70821e-008
Heightened Def Con from 8.75499e-008 ++++++++++++++++++++++++to 8.75499e-008
Heightened Def Con from 8.75499e-008 +++++++++++++++++++++++++to 8.78795e-008
Heightened Def Con from 8.80501e-008 +++++++++++to 8.80501e-008
Heightened Def Con from 8.80501e-008 to 8.80821e-008
Heightened Def Con from 8.85499e-008 ++++++++++++++++++++++++to 8.85499e-008
Heightened Def Con from 8.85499e-008 +++++++++++++++++++++++++to 8.88795e-008
Heightened Def Con from 8.90501e-008 +++++++++++to 8.90501e-008
Heightened Def Con from 8.90501e-008 to 8.90821e-008
Heightened Def Con from 8.95499e-008 ++++++++++++++++++++++++to 8.95499e-008
Heightened Def Con from 8.95499e-008 +++++++++++++++++++++++++to 8.98795e-008
Heightened Def Con from 9.00501e-008 +++++++++++to 9.00501e-008
Heightened Def Con from 9.00501e-008 to 9.00821e-008
Heightened Def Con from 9.05499e-008 ++++++++++++++++++++++++to 9.05499e-008
Heightened Def Con from 9.05499e-008 +++++++++++++++++++++++++to 9.08795e-008
Heightened Def Con from 9.10501e-008 +++++++++++to 9.10501e-008
Heightened Def Con from 9.10501e-008 to 9.10821e-008
Heightened Def Con from 9.15499e-008 ++++++++++++++++++++++++to 9.15499e-008
Heightened Def Con from 9.15499e-008 +++++++++++++++++++++++++to 9.18795e-008
Heightened Def Con from 9.20501e-008 +++++++++++to 9.20501e-008
Heightened Def Con from 9.20501e-008 to 9.20821e-008
Heightened Def Con from 9.25499e-008 ++++++++++++++++++++++++to 9.25499e-008
Heightened Def Con from 9.25499e-008 +++++++++++++++++++++++++to 9.28795e-008
Heightened Def Con from 9.30501e-008 +++++++++++to 9.30501e-008
Heightened Def Con from 9.30501e-008 to 9.30821e-008
Heightened Def Con from 9.35499e-008 ++++++++++++++++++++++++to 9.35499e-008
Heightened Def Con from 9.35499e-008 +++++++++++++++++++++++++to 9.38795e-008
Heightened Def Con from 9.40501e-008 +++++++++++to 9.40501e-008
Heightened Def Con from 9.40501e-008 to 9.40821e-008
Heightened Def Con from 9.45499e-008 ++++++++++++++++++++++++to 9.45499e-008
Heightened Def Con from 9.45499e-008 +++++++++++++++++++++++++to 9.48795e-008
Heightened Def Con from 9.50501e-008 +++++++++++to 9.50501e-008
Heightened Def Con from 9.50501e-008 to 9.50821e-008
Heightened Def Con from 9.55499e-008 ++++++++++++++++++++++++to 9.55499e-008
Heightened Def Con from 9.55499e-008 +++++++++++++++++++++++++to 9.58795e-008
Heightened Def Con from 9.60501e-008 +++++++++++to 9.60501e-008
Heightened Def Con from 9.60501e-008 to 9.60821e-008
Heightened Def Con from 9.65499e-008 ++++++++++++++++++++++++to 9.65499e-008
Heightened Def Con from 9.65499e-008 +++++++++++++++++++++++++to 9.68795e-008
Heightened Def Con from 9.70501e-008 +++++++++++to 9.70501e-008
Heightened Def Con from 9.70501e-008 to 9.70821e-008
Heightened Def Con from 9.75499e-008 ++++++++++++++++++++++++to 9.75499e-008
Heightened Def Con from 9.75499e-008 +++++++++++++++++++++++++to 9.78795e-008
Heightened Def Con from 9.80501e-008 +++++++++++to 9.80501e-008
Heightened Def Con from 9.80501e-008 to 9.80821e-008
Heightened Def Con from 9.85499e-008 ++++++++++++++++++++++++to 9.85499e-008
Heightened Def Con from 9.85499e-008 +++++++++++++++++++++++++to 9.88795e-008
Heightened Def Con from 9.90501e-008 +++++++++++to 9.90501e-008
Heightened Def Con from 9.90501e-008 to 9.90821e-008
Heightened Def Con from 9.95499e-008 ++++++++++++++++++++++++to 9.95499e-008
Heightened Def Con from 9.95499e-008 +++++++++++++++++++++++++to 9.98795e-008
Heightened Def Con from 1.0005e-007 +++++++++++to 1.0005e-007
Heightened Def Con from 1.0005e-007 to 1.00082e-007
Heightened Def Con from 1.0055e-007 ++++++++++++++++++++++++to 1.0055e-007
Heightened Def Con from 1.0055e-007 +++++++++++++++++++++++++to 1.0088e-007
Heightened Def Con from 1.0105e-007 +++++++++++to 1.0105e-007
Heightened Def Con from 1.0105e-007 to 1.01082e-007
Heightened Def Con from 1.0155e-007 ++++++++++++++++++++++++to 1.0155e-007
Heightened Def Con from 1.0155e-007 +++++++++++++++++++++++++to 1.0188e-007
Heightened Def Con from 1.0205e-007 +++++++++++to 1.0205e-007
Heightened Def Con from 1.0205e-007 to 1.02082e-007
Heightened Def Con from 1.0255e-007 ++++++++++++++++++++++++to 1.0255e-007
Heightened Def Con from 1.0255e-007 +++++++++++++++++++++++++to 1.0288e-007
Heightened Def Con from 1.0305e-007 +++++++++++to 1.0305e-007
Heightened Def Con from 1.0305e-007 to 1.03082e-007
Heightened Def Con from 1.0355e-007 ++++++++++++++++++++++++to 1.0355e-007
Heightened Def Con from 1.0355e-007 +++++++++++++++++++++++++to 1.0388e-007
Heightened Def Con from 1.0405e-007 +++++++++++to 1.0405e-007
Heightened Def Con from 1.0405e-007 to 1.04082e-007
Heightened Def Con from 1.0455e-007 ++++++++++++++++++++++++to 1.0455e-007
Heightened Def Con from 1.0455e-007 +++++++++++++++++++++++++to 1.0488e-007
Heightened Def Con from 1.0505e-007 +++++++++++to 1.0505e-007
Heightened Def Con from 1.0505e-007 to 1.05082e-007
Heightened Def Con from 1.0555e-007 +++++++++++++++++++++++to 1.0555e-007
Heightened Def Con from 1.0555e-007 +++++++++++++++++++++++to 1.05879e-007
Heightened Def Con from 1.06051e-007 to 1.06143e-007
Heightened Def Con from 1.06547e-007 ++++++++++++++++++++++++to 1.06547e-007
Heightened Def Con from 1.07057e-007 +++++++++++++++++++++++++++to 1.07058e-007
Heightened Def Con from 1.07494e-007 +++++++++++++++++++++++++++to 1.07503e-007
Heightened Def Con from 1.07533e-007 to 1.07533e-007
Heightened Def Con from 1.08064e-007 +++++++++++++++++++++++++++to 1.08064e-007
Heightened Def Con from 1.08539e-007 to 1.08836e-007
Heightened Def Con from 1.09058e-007 +++++++++++++++++++++++++++to 1.09058e-007
Heightened Def Con from 1.09546e-007 ++++++++++++++++++++++++to 1.09546e-007
Heightened Def Con from 1.09987e-007 ++++++++++++++++++to 1.09987e-007
Heightened Def Con from 1.09987e-007 +++++++++++++++++to 1.09987e-007
Heightened Def Con from 1.09987e-007 ++++++++++++++++++to 1.09987e-007
Heightened Def Con from 1.09987e-007 +++++++++++++++++++to 1.09987e-007
Heightened Def Con from 1.09987e-007 +++++++++++++++++++to 1.09987e-007
Heightened Def Con from 1.09987e-007 +++++++++++++++++++to 1.09987e-007
Heightened Def Con from 1.09987e-007 +++++++++++++++++++to 1.09987e-007
Heightened Def Con from 1.09987e-007 to 1.09988e-007
Heightened Def Con from 1.1005e-007 +++++++++++to 1.1005e-007
Heightened Def Con from 1.1005e-007 to 1.10082e-007
Heightened Def Con from 1.1055e-007 to 1.1055e-007
Heightened Def Con from 1.1055e-007 ++++++++++++++++++++++++to 1.1055e-007
Heightened Def Con from 1.1055e-007 +++++++++++++++++++++++++to 1.1088e-007
Heightened Def Con from 1.1105e-007 ++++++++++++to 1.1105e-007
Heightened Def Con from 1.1105e-007 to 1.11082e-007
Heightened Def Con from 1.1155e-007 to 1.1155e-007
Heightened Def Con from 1.1155e-007 ++++++++++++++++++++++++to 1.1155e-007
Heightened Def Con from 1.1155e-007 +++++++++++++++++++++++++to 1.1188e-007
Heightened Def Con from 1.1205e-007 ++++++++++++to 1.1205e-007
Heightened Def Con from 1.1205e-007 to 1.12082e-007
Heightened Def Con from 1.1255e-007 to 1.1255e-007
Heightened Def Con from 1.1255e-007 ++++++++++++++++++++++++to 1.1255e-007
Heightened Def Con from 1.1255e-007 +++++++++++++++++++++++++to 1.1288e-007
Heightened Def Con from 1.1305e-007 ++++++++++++to 1.1305e-007
Heightened Def Con from 1.1305e-007 to 1.13082e-007
Heightened Def Con from 1.1355e-007 to 1.1355e-007
Heightened Def Con from 1.1355e-007 ++++++++++++++++++++++++to 1.1355e-007
Heightened Def Con from 1.1355e-007 +++++++++++++++++++++++++to 1.1388e-007
Heightened Def Con from 1.1405e-007 ++++++++++++to 1.1405e-007
Heightened Def Con from 1.1405e-007 to 1.14082e-007
Heightened Def Con from 1.1455e-007 to 1.1455e-007
Heightened Def Con from 1.1455e-007 ++++++++++++++++++++++++to 1.1455e-007
Heightened Def Con from 1.1455e-007 +++++++++++++++++++++++++to 1.1488e-007
Heightened Def Con from 1.1505e-007 ++++++++++++to 1.1505e-007
Heightened Def Con from 1.1505e-007 to 1.15082e-007
Heightened Def Con from 1.1555e-007 to 1.1555e-007
Heightened Def Con from 1.1555e-007 ++++++++++++++++++++++++to 1.1555e-007
Heightened Def Con from 1.1555e-007 +++++++++++++++++++++++++to 1.1588e-007
Heightened Def Con from 1.1605e-007 ++++++++++++to 1.1605e-007
Heightened Def Con from 1.1605e-007 to 1.16082e-007
Heightened Def Con from 1.1655e-007 to 1.1655e-007
Heightened Def Con from 1.1655e-007 ++++++++++++++++++++++++to 1.1655e-007
Heightened Def Con from 1.1655e-007 +++++++++++++++++++++++++to 1.1688e-007
Heightened Def Con from 1.1705e-007 ++++++++++++to 1.1705e-007
Heightened Def Con from 1.1705e-007 to 1.17082e-007
Heightened Def Con from 1.1755e-007 to 1.1755e-007
Heightened Def Con from 1.1755e-007 ++++++++++++++++++++++++to 1.1755e-007
Heightened Def Con from 1.1755e-007 +++++++++++++++++++++++++to 1.1788e-007
Heightened Def Con from 1.1805e-007 ++++++++++++to 1.1805e-007
Heightened Def Con from 1.1805e-007 to 1.18082e-007
Heightened Def Con from 1.1855e-007 to 1.1855e-007
Heightened Def Con from 1.1855e-007 ++++++++++++++++++++++++to 1.1855e-007
Heightened Def Con from 1.1855e-007 +++++++++++++++++++++++++to 1.1888e-007
Heightened Def Con from 1.1905e-007 ++++++++++++to 1.1905e-007
Heightened Def Con from 1.1905e-007 to 1.19082e-007
Heightened Def Con from 1.1955e-007 to 1.1955e-007
Heightened Def Con from 1.1955e-007 ++++++++++++++++++++++++to 1.1955e-007
Heightened Def Con from 1.1955e-007 +++++++++++++++++++++++++to 1.1988e-007
Heightened Def Con from 1.2005e-007 ++++++++++++to 1.2005e-007
Heightened Def Con from 1.2005e-007 to 1.20082e-007
Heightened Def Con from 1.2055e-007 to 1.2055e-007
Heightened Def Con from 1.2055e-007 ++++++++++++++++++++++++to 1.2055e-007
Heightened Def Con from 1.2055e-007 +++++++++++++++++++++++++to 1.2088e-007
Heightened Def Con from 1.2105e-007 ++++++++++++to 1.2105e-007
Heightened Def Con from 1.2105e-007 to 1.21082e-007
Heightened Def Con from 1.2155e-007 to 1.2155e-007
Heightened Def Con from 1.2155e-007 ++++++++++++++++++++++++to 1.2155e-007
Heightened Def Con from 1.2155e-007 +++++++++++++++++++++++++to 1.2188e-007
Heightened Def Con from 1.2205e-007 ++++++++++++to 1.2205e-007
Heightened Def Con from 1.2205e-007 to 1.22082e-007
Heightened Def Con from 1.2255e-007 to 1.2255e-007
Heightened Def Con from 1.2255e-007 ++++++++++++++++++++++++to 1.2255e-007
Heightened Def Con from 1.2255e-007 +++++++++++++++++++++++++to 1.2288e-007
Heightened Def Con from 1.2305e-007 ++++++++++++to 1.2305e-007
Heightened Def Con from 1.2305e-007 to 1.23082e-007
Heightened Def Con from 1.2355e-007 to 1.2355e-007
Heightened Def Con from 1.2355e-007 ++++++++++++++++++++++++to 1.2355e-007
Heightened Def Con from 1.2355e-007 +++++++++++++++++++++++++to 1.2388e-007
Heightened Def Con from 1.2405e-007 ++++++++++++to 1.2405e-007
Heightened Def Con from 1.2405e-007 to 1.24082e-007
Heightened Def Con from 1.2455e-007 to 1.2455e-007
Heightened Def Con from 1.2455e-007 ++++++++++++++++++++++++to 1.2455e-007
Heightened Def Con from 1.2455e-007 +++++++++++++++++++++++++to 1.2488e-007
Heightened Def Con from 1.2505e-007 ++++++++++++to 1.2505e-007
Heightened Def Con from 1.2505e-007 to 1.25082e-007
Heightened Def Con from 1.2555e-007 to 1.2555e-007
Heightened Def Con from 1.2555e-007 ++++++++++++++++++++++++to 1.2555e-007
Heightened Def Con from 1.2555e-007 +++++++++++++++++++++++++to 1.2588e-007
Heightened Def Con from 1.2605e-007 ++++++++++++to 1.2605e-007
Heightened Def Con from 1.2605e-007 to 1.26082e-007
Heightened Def Con from 1.2655e-007 to 1.2655e-007
Heightened Def Con from 1.2655e-007 ++++++++++++++++++++++++to 1.2655e-007
Heightened Def Con from 1.2655e-007 +++++++++++++++++++++++++to 1.2688e-007
Heightened Def Con from 1.2705e-007 ++++++++++++to 1.2705e-007
Heightened Def Con from 1.2705e-007 to 1.27082e-007
Heightened Def Con from 1.2755e-007 to 1.2755e-007
Heightened Def Con from 1.2755e-007 ++++++++++++++++++++++++to 1.2755e-007
Heightened Def Con from 1.2755e-007 +++++++++++++++++++++++++to 1.2788e-007
Heightened Def Con from 1.2805e-007 ++++++++++++to 1.2805e-007
Heightened Def Con from 1.2805e-007 to 1.28082e-007
Heightened Def Con from 1.2855e-007 to 1.2855e-007
Heightened Def Con from 1.2855e-007 ++++++++++++++++++++++++to 1.2855e-007
Heightened Def Con from 1.2855e-007 +++++++++++++++++++++++++to 1.2888e-007
Heightened Def Con from 1.2905e-007 ++++++++++++to 1.2905e-007
Heightened Def Con from 1.2905e-007 to 1.29082e-007
Heightened Def Con from 1.2955e-007 to 1.2955e-007
Heightened Def Con from 1.2955e-007 ++++++++++++++++++++++++to 1.2955e-007
Heightened Def Con from 1.2955e-007 +++++++++++++++++++++++++to 1.2988e-007
Heightened Def Con from 1.3005e-007 ++++++++++++to 1.3005e-007
Heightened Def Con from 1.3005e-007 to 1.30082e-007
Heightened Def Con from 1.3055e-007 to 1.3055e-007
Heightened Def Con from 1.3055e-007 ++++++++++++++++++++++++to 1.3055e-007
Heightened Def Con from 1.3055e-007 +++++++++++++++++++++++++to 1.3088e-007
Heightened Def Con from 1.3105e-007 ++++++++++++to 1.3105e-007
Heightened Def Con from 1.3105e-007 to 1.31082e-007
Heightened Def Con from 1.3155e-007 to 1.3155e-007
Heightened Def Con from 1.3155e-007 ++++++++++++++++++++++++to 1.3155e-007
Heightened Def Con from 1.3155e-007 +++++++++++++++++++++++++to 1.3188e-007
Heightened Def Con from 1.3205e-007 ++++++++++++to 1.3205e-007
Heightened Def Con from 1.3205e-007 to 1.32082e-007
Heightened Def Con from 1.3255e-007 to 1.3255e-007
Heightened Def Con from 1.3255e-007 ++++++++++++++++++++++++to 1.3255e-007
Heightened Def Con from 1.3255e-007 +++++++++++++++++++++++++to 1.3288e-007
Heightened Def Con from 1.3305e-007 ++++++++++++to 1.3305e-007
Heightened Def Con from 1.3305e-007 to 1.33082e-007
Heightened Def Con from 1.3355e-007 to 1.3355e-007
Heightened Def Con from 1.3355e-007 ++++++++++++++++++++++++to 1.3355e-007
Heightened Def Con from 1.3355e-007 +++++++++++++++++++++++++to 1.3388e-007
Heightened Def Con from 1.3405e-007 ++++++++++++to 1.3405e-007
Heightened Def Con from 1.3405e-007 to 1.34082e-007
Heightened Def Con from 1.3455e-007 to 1.3455e-007
Heightened Def Con from 1.3455e-007 ++++++++++++++++++++++++to 1.3455e-007
Heightened Def Con from 1.3455e-007 +++++++++++++++++++++++++to 1.3488e-007
Heightened Def Con from 1.3505e-007 ++++++++++++to 1.3505e-007
Heightened Def Con from 1.3505e-007 to 1.35082e-007
Heightened Def Con from 1.3555e-007 to 1.3555e-007
Heightened Def Con from 1.3555e-007 ++++++++++++++++++++++++to 1.3555e-007
Heightened Def Con from 1.3555e-007 +++++++++++++++++++++++++to 1.3588e-007
Heightened Def Con from 1.3605e-007 ++++++++++++to 1.3605e-007
Heightened Def Con from 1.3605e-007 to 1.36082e-007
Heightened Def Con from 1.3655e-007 to 1.3655e-007
Heightened Def Con from 1.3655e-007 ++++++++++++++++++++++++to 1.3655e-007
Heightened Def Con from 1.3655e-007 +++++++++++++++++++++++++to 1.3688e-007
Heightened Def Con from 1.3705e-007 ++++++++++++to 1.3705e-007
Heightened Def Con from 1.3705e-007 to 1.37082e-007
Heightened Def Con from 1.3755e-007 to 1.3755e-007
Heightened Def Con from 1.3755e-007 ++++++++++++++++++++++++to 1.3755e-007
Heightened Def Con from 1.3755e-007 +++++++++++++++++++++++++to 1.3788e-007
Heightened Def Con from 1.3805e-007 ++++++++++++to 1.3805e-007
Heightened Def Con from 1.3805e-007 to 1.38082e-007
Heightened Def Con from 1.3855e-007 to 1.3855e-007
Heightened Def Con from 1.3855e-007 ++++++++++++++++++++++++to 1.3855e-007
Heightened Def Con from 1.3855e-007 +++++++++++++++++++++++++to 1.3888e-007
Heightened Def Con from 1.3905e-007 ++++++++++++to 1.3905e-007
Heightened Def Con from 1.3905e-007 to 1.39082e-007
Heightened Def Con from 1.3955e-007 to 1.3955e-007
Heightened Def Con from 1.3955e-007 ++++++++++++++++++++++++to 1.3955e-007
Heightened Def Con from 1.3955e-007 +++++++++++++++++++++++++to 1.3988e-007
Heightened Def Con from 1.4005e-007 ++++++++++++to 1.4005e-007
Heightened Def Con from 1.4005e-007 to 1.40082e-007
Heightened Def Con from 1.4055e-007 to 1.4055e-007
Heightened Def Con from 1.4055e-007 ++++++++++++++++++++++++to 1.4055e-007
Heightened Def Con from 1.4055e-007 +++++++++++++++++++++++++to 1.4088e-007
Heightened Def Con from 1.4105e-007 ++++++++++++to 1.4105e-007
Heightened Def Con from 1.4105e-007 to 1.41082e-007
Heightened Def Con from 1.4155e-007 to 1.4155e-007
Heightened Def Con from 1.4155e-007 ++++++++++++++++++++++++to 1.4155e-007
Heightened Def Con from 1.4155e-007 +++++++++++++++++++++++++to 1.4188e-007
Heightened Def Con from 1.4205e-007 ++++++++++++to 1.4205e-007
Heightened Def Con from 1.4205e-007 to 1.42082e-007
Heightened Def Con from 1.4255e-007 to 1.4255e-007
Heightened Def Con from 1.4255e-007 ++++++++++++++++++++++++to 1.4255e-007
Heightened Def Con from 1.4255e-007 +++++++++++++++++++++++++to 1.4288e-007
Heightened Def Con from 1.4305e-007 ++++++++++++to 1.4305e-007
Heightened Def Con from 1.4305e-007 to 1.43082e-007
Heightened Def Con from 1.4355e-007 to 1.4355e-007
Heightened Def Con from 1.4355e-007 ++++++++++++++++++++++++to 1.4355e-007
Heightened Def Con from 1.4355e-007 +++++++++++++++++++++++++to 1.4388e-007
Heightened Def Con from 1.4405e-007 ++++++++++++to 1.4405e-007
Heightened Def Con from 1.4405e-007 to 1.44082e-007
Heightened Def Con from 1.4455e-007 to 1.4455e-007
Heightened Def Con from 1.4455e-007 ++++++++++++++++++++++++to 1.4455e-007
Heightened Def Con from 1.4455e-007 +++++++++++++++++++++++++to 1.4488e-007
Heightened Def Con from 1.4505e-007 ++++++++++++to 1.4505e-007
Heightened Def Con from 1.4505e-007 to 1.45082e-007
Heightened Def Con from 1.4555e-007 to 1.4555e-007
Heightened Def Con from 1.4555e-007 ++++++++++++++++++++++++to 1.4555e-007
Heightened Def Con from 1.4555e-007 +++++++++++++++++++++++++to 1.4588e-007
Heightened Def Con from 1.4605e-007 ++++++++++++to 1.4605e-007
Heightened Def Con from 1.4605e-007 to 1.46082e-007
Heightened Def Con from 1.4655e-007 to 1.4655e-007
Heightened Def Con from 1.4655e-007 ++++++++++++++++++++++++to 1.4655e-007
Heightened Def Con from 1.4655e-007 +++++++++++++++++++++++++to 1.4688e-007
Heightened Def Con from 1.4705e-007 ++++++++++++to 1.4705e-007
Heightened Def Con from 1.4705e-007 to 1.47082e-007
Heightened Def Con from 1.4755e-007 to 1.4755e-007
Heightened Def Con from 1.4755e-007 ++++++++++++++++++++++++to 1.4755e-007
Heightened Def Con from 1.4755e-007 +++++++++++++++++++++++++to 1.4788e-007
Heightened Def Con from 1.4805e-007 ++++++++++++to 1.4805e-007
Heightened Def Con from 1.4805e-007 to 1.48082e-007
Heightened Def Con from 1.4855e-007 to 1.4855e-007
Heightened Def Con from 1.4855e-007 ++++++++++++++++++++++++to 1.4855e-007
Heightened Def Con from 1.4855e-007 +++++++++++++++++++++++++to 1.4888e-007
Heightened Def Con from 1.4905e-007 ++++++++++++to 1.4905e-007
Heightened Def Con from 1.4905e-007 to 1.49082e-007
Heightened Def Con from 1.4955e-007 to 1.4955e-007
Heightened Def Con from 1.4955e-007 ++++++++++++++++++++++++to 1.4955e-007
Heightened Def Con from 1.4955e-007 +++++++++++++++++++++++++to 1.4988e-007
Heightened Def Con from 1.50013e-007 +++++++++++++++++to 1.50013e-007
Heightened Def Con from 1.50013e-007 ++++++++++++++++++to 1.50013e-007
Heightened Def Con from 1.50013e-007 ++++++++++++++++++to 1.50013e-007
Heightened Def Con from 1.50013e-007 +++++++++++++++++++to 1.50013e-007
Heightened Def Con from 1.50013e-007 +++++++++++++++++++to 1.50013e-007
Heightened Def Con from 1.50013e-007 +++++++++++++++++++to 1.50013e-007
Heightened Def Con from 1.50013e-007 +++++++++++++++++++to 1.50013e-007
Heightened Def Con from 1.50013e-007 ++++++++++++++++++++to 1.50013e-007
Heightened Def Con from 1.50013e-007 +++++++++++++++++++++to 1.50013e-007
Heightened Def Con from 1.50013e-007 +++++++++++++++++++++to 1.50013e-007
Heightened Def Con from 1.50013e-007 to 1.5005e-007
Heightened Def Con from 1.5005e-007 +++++++++++++++++++++++++++to 1.50056e-007
Heightened Def Con from 1.50545e-007 ++++++++++++++++++++++++to 1.50545e-007
Heightened Def Con from 1.51059e-007 +++++++++++++++++++++++++++to 1.51059e-007
Heightened Def Con from 1.51538e-007 to 1.51836e-007
Heightened Def Con from 1.52065e-007 +++++++++++++++++++++++++++to 1.52065e-007
Heightened Def Con from 1.52506e-007 to 1.52507e-007
Heightened Def Con from 1.52536e-007 to 1.52833e-007
Heightened Def Con from 1.53056e-007 +++++++++++++++++++++++++++to 1.53056e-007
Heightened Def Con from 1.53547e-007 ++++++++++++++++++++++++to 1.53547e-007
Heightened Def Con from 1.54051e-007 to 1.54143e-007
Heightened Def Con from 1.5455e-007 +++++++++++++++++++++++to 1.5455e-007
Heightened Def Con from 1.5455e-007 +++++++++++++++++++++++to 1.54586e-007
Heightened Def Con from 1.54708e-007 +++++++++++++++++++to 1.54708e-007
Heightened Def Con from 1.54708e-007 ++++++++++++++++++to 1.54708e-007
Heightened Def Con from 1.54708e-007 ++++++++++++++++++to 1.54708e-007
Heightened Def Con from 1.54708e-007 ++++++++++++++++++to 1.54708e-007
Heightened Def Con from 1.54708e-007 to 1.5471e-007
Heightened Def Con from 1.5505e-007 +++++++++++to 1.5505e-007
Heightened Def Con from 1.5505e-007 to 1.55082e-007
Heightened Def Con from 1.5555e-007 ++++++++++++++++++++++++to 1.5555e-007
Heightened Def Con from 1.5555e-007 +++++++++++++++++++++++++to 1.5588e-007
Heightened Def Con from 1.5605e-007 +++++++++++to 1.5605e-007
Heightened Def Con from 1.5605e-007 to 1.56082e-007
Heightened Def Con from 1.5655e-007 ++++++++++++++++++++++++to 1.5655e-007
Heightened Def Con from 1.5655e-007 +++++++++++++++++++++++++to 1.5688e-007
Heightened Def Con from 1.5705e-007 +++++++++++to 1.5705e-007
Heightened Def Con from 1.5705e-007 to 1.57082e-007
Heightened Def Con from 1.5755e-007 ++++++++++++++++++++++++to 1.5755e-007
Heightened Def Con from 1.5755e-007 +++++++++++++++++++++++++to 1.5788e-007
Heightened Def Con from 1.5805e-007 +++++++++++to 1.5805e-007
Heightened Def Con from 1.5805e-007 to 1.58082e-007
Heightened Def Con from 1.5855e-007 ++++++++++++++++++++++++to 1.5855e-007
Heightened Def Con from 1.5855e-007 +++++++++++++++++++++++++to 1.5888e-007
Heightened Def Con from 1.5905e-007 +++++++++++to 1.5905e-007
Heightened Def Con from 1.5905e-007 to 1.59082e-007
Heightened Def Con from 1.5955e-007 ++++++++++++++++++++++++to 1.5955e-007
Heightened Def Con from 1.5955e-007 +++++++++++++++++++++++++to 1.5988e-007
Heightened Def Con from 1.6005e-007 +++++++++++to 1.6005e-007
Heightened Def Con from 1.6005e-007 to 1.60082e-007
Heightened Def Con from 1.6055e-007 ++++++++++++++++++++++++to 1.6055e-007
Heightened Def Con from 1.6055e-007 +++++++++++++++++++++++++to 1.6088e-007
Heightened Def Con from 1.6105e-007 +++++++++++to 1.6105e-007
Heightened Def Con from 1.6105e-007 to 1.61082e-007
Heightened Def Con from 1.6155e-007 ++++++++++++++++++++++++to 1.6155e-007
Heightened Def Con from 1.6155e-007 +++++++++++++++++++++++++to 1.6188e-007
Heightened Def Con from 1.6205e-007 +++++++++++to 1.6205e-007
Heightened Def Con from 1.6205e-007 to 1.62082e-007
Heightened Def Con from 1.6255e-007 ++++++++++++++++++++++++to 1.6255e-007
Heightened Def Con from 1.6255e-007 +++++++++++++++++++++++++to 1.6288e-007
Heightened Def Con from 1.6305e-007 +++++++++++to 1.6305e-007
Heightened Def Con from 1.6305e-007 to 1.63082e-007
Heightened Def Con from 1.6355e-007 ++++++++++++++++++++++++to 1.6355e-007
Heightened Def Con from 1.6355e-007 +++++++++++++++++++++++++to 1.6388e-007
Heightened Def Con from 1.6405e-007 +++++++++++to 1.6405e-007
Heightened Def Con from 1.6405e-007 to 1.64082e-007
Heightened Def Con from 1.6455e-007 ++++++++++++++++++++++++to 1.6455e-007
Heightened Def Con from 1.6455e-007 +++++++++++++++++++++++++to 1.6488e-007
Heightened Def Con from 1.6505e-007 +++++++++++to 1.6505e-007
Heightened Def Con from 1.6505e-007 to 1.65082e-007
Heightened Def Con from 1.6555e-007 ++++++++++++++++++++++++to 1.6555e-007
Heightened Def Con from 1.6555e-007 +++++++++++++++++++++++++to 1.6588e-007
Heightened Def Con from 1.6605e-007 +++++++++++to 1.6605e-007
Heightened Def Con from 1.6605e-007 to 1.66082e-007
Heightened Def Con from 1.6655e-007 ++++++++++++++++++++++++to 1.6655e-007
Heightened Def Con from 1.6655e-007 +++++++++++++++++++++++++to 1.6688e-007
Heightened Def Con from 1.6705e-007 +++++++++++to 1.6705e-007
Heightened Def Con from 1.6705e-007 to 1.67082e-007
Heightened Def Con from 1.6755e-007 ++++++++++++++++++++++++to 1.6755e-007
Heightened Def Con from 1.6755e-007 +++++++++++++++++++++++++to 1.6788e-007
Heightened Def Con from 1.6805e-007 +++++++++++to 1.6805e-007
Heightened Def Con from 1.6805e-007 to 1.68082e-007
Heightened Def Con from 1.6855e-007 ++++++++++++++++++++++++to 1.6855e-007
Heightened Def Con from 1.6855e-007 +++++++++++++++++++++++++to 1.6888e-007
Heightened Def Con from 1.6905e-007 +++++++++++to 1.6905e-007
Heightened Def Con from 1.6905e-007 to 1.69082e-007
Heightened Def Con from 1.6955e-007 ++++++++++++++++++++++++to 1.6955e-007
Heightened Def Con from 1.6955e-007 +++++++++++++++++++++++++to 1.6988e-007
Heightened Def Con from 1.7005e-007 +++++++++++to 1.7005e-007
Heightened Def Con from 1.7005e-007 to 1.70082e-007
Heightened Def Con from 1.7055e-007 ++++++++++++++++++++++++to 1.7055e-007
Heightened Def Con from 1.7055e-007 +++++++++++++++++++++++++to 1.7088e-007
Heightened Def Con from 1.7105e-007 +++++++++++to 1.7105e-007
Heightened Def Con from 1.7105e-007 to 1.71082e-007
Heightened Def Con from 1.7155e-007 ++++++++++++++++++++++++to 1.7155e-007
Heightened Def Con from 1.7155e-007 +++++++++++++++++++++++++to 1.7188e-007
Heightened Def Con from 1.7205e-007 +++++++++++to 1.7205e-007
Heightened Def Con from 1.7205e-007 to 1.72082e-007
Heightened Def Con from 1.7255e-007 ++++++++++++++++++++++++to 1.7255e-007
Heightened Def Con from 1.7255e-007 +++++++++++++++++++++++++to 1.7288e-007
Heightened Def Con from 1.7305e-007 +++++++++++to 1.7305e-007
Heightened Def Con from 1.7305e-007 to 1.73082e-007
Heightened Def Con from 1.7355e-007 ++++++++++++++++++++++++to 1.7355e-007
Heightened Def Con from 1.7355e-007 +++++++++++++++++++++++++to 1.7388e-007
Heightened Def Con from 1.7405e-007 +++++++++++to 1.7405e-007
Heightened Def Con from 1.7405e-007 to 1.74082e-007
Heightened Def Con from 1.7455e-007 ++++++++++++++++++++++++to 1.7455e-007
Heightened Def Con from 1.7455e-007 +++++++++++++++++++++++++to 1.7488e-007
Heightened Def Con from 1.7505e-007 +++++++++++to 1.7505e-007
Heightened Def Con from 1.7505e-007 to 1.75082e-007
Heightened Def Con from 1.7555e-007 ++++++++++++++++++++++++to 1.7555e-007
Heightened Def Con from 1.7555e-007 +++++++++++++++++++++++++to 1.7588e-007
Heightened Def Con from 1.7605e-007 +++++++++++to 1.7605e-007
Heightened Def Con from 1.7605e-007 to 1.76082e-007
Heightened Def Con from 1.7655e-007 ++++++++++++++++++++++++to 1.7655e-007
Heightened Def Con from 1.7655e-007 +++++++++++++++++++++++++to 1.7688e-007
Heightened Def Con from 1.7705e-007 +++++++++++to 1.7705e-007
Heightened Def Con from 1.7705e-007 to 1.77082e-007
Heightened Def Con from 1.7755e-007 ++++++++++++++++++++++++to 1.7755e-007
Heightened Def Con from 1.7755e-007 +++++++++++++++++++++++++to 1.7788e-007
Heightened Def Con from 1.7805e-007 +++++++++++to 1.7805e-007
Heightened Def Con from 1.7805e-007 to 1.78082e-007
Heightened Def Con from 1.7855e-007 ++++++++++++++++++++++++to 1.7855e-007
Heightened Def Con from 1.7855e-007 +++++++++++++++++++++++++to 1.7888e-007
Heightened Def Con from 1.7905e-007 +++++++++++to 1.7905e-007
Heightened Def Con from 1.7905e-007 to 1.79082e-007
Heightened Def Con from 1.7955e-007 ++++++++++++++++++++++++to 1.7955e-007
Heightened Def Con from 1.7955e-007 +++++++++++++++++++++++++to 1.7988e-007
Heightened Def Con from 1.8005e-007 +++++++++++to 1.8005e-007
Heightened Def Con from 1.8005e-007 to 1.80082e-007
Heightened Def Con from 1.8055e-007 ++++++++++++++++++++++++to 1.8055e-007
Heightened Def Con from 1.8055e-007 +++++++++++++++++++++++++to 1.8088e-007
Heightened Def Con from 1.8105e-007 +++++++++++to 1.8105e-007
Heightened Def Con from 1.8105e-007 to 1.81082e-007
Heightened Def Con from 1.8155e-007 ++++++++++++++++++++++++to 1.8155e-007
Heightened Def Con from 1.8155e-007 +++++++++++++++++++++++++to 1.8188e-007
Heightened Def Con from 1.8205e-007 +++++++++++to 1.8205e-007
Heightened Def Con from 1.8205e-007 to 1.82082e-007
Heightened Def Con from 1.8255e-007 ++++++++++++++++++++++++to 1.8255e-007
Heightened Def Con from 1.8255e-007 +++++++++++++++++++++++++to 1.8288e-007
Heightened Def Con from 1.8305e-007 +++++++++++to 1.8305e-007
Heightened Def Con from 1.8305e-007 to 1.83082e-007
Heightened Def Con from 1.8355e-007 ++++++++++++++++++++++++to 1.8355e-007
Heightened Def Con from 1.8355e-007 +++++++++++++++++++++++++to 1.8388e-007
Heightened Def Con from 1.8405e-007 +++++++++++to 1.8405e-007
Heightened Def Con from 1.8405e-007 to 1.84082e-007
Heightened Def Con from 1.8455e-007 ++++++++++++++++++++++++to 1.8455e-007
Heightened Def Con from 1.8455e-007 +++++++++++++++++++++++++to 1.8488e-007
Heightened Def Con from 1.8505e-007 +++++++++++to 1.8505e-007
Heightened Def Con from 1.8505e-007 to 1.85082e-007
Heightened Def Con from 1.8555e-007 ++++++++++++++++++++++++to 1.8555e-007
Heightened Def Con from 1.8555e-007 +++++++++++++++++++++++++to 1.8588e-007
Heightened Def Con from 1.8605e-007 +++++++++++to 1.8605e-007
Heightened Def Con from 1.8605e-007 to 1.86082e-007
Heightened Def Con from 1.8655e-007 ++++++++++++++++++++++++to 1.8655e-007
Heightened Def Con from 1.8655e-007 +++++++++++++++++++++++++to 1.8688e-007
Heightened Def Con from 1.8705e-007 +++++++++++to 1.8705e-007
Heightened Def Con from 1.8705e-007 to 1.87082e-007
Heightened Def Con from 1.8755e-007 ++++++++++++++++++++++++to 1.8755e-007
Heightened Def Con from 1.8755e-007 +++++++++++++++++++++++++to 1.8788e-007
Heightened Def Con from 1.8805e-007 +++++++++++to 1.8805e-007
Heightened Def Con from 1.8805e-007 to 1.88082e-007
Heightened Def Con from 1.8855e-007 ++++++++++++++++++++++++to 1.8855e-007
Heightened Def Con from 1.8855e-007 +++++++++++++++++++++++++to 1.8888e-007
Heightened Def Con from 1.8905e-007 +++++++++++to 1.8905e-007
Heightened Def Con from 1.8905e-007 to 1.89082e-007
Heightened Def Con from 1.8955e-007 ++++++++++++++++++++++++to 1.8955e-007
Heightened Def Con from 1.8955e-007 +++++++++++++++++++++++++to 1.8988e-007
Heightened Def Con from 1.9005e-007 +++++++++++to 1.9005e-007
Heightened Def Con from 1.9005e-007 to 1.90082e-007
Heightened Def Con from 1.9055e-007 ++++++++++++++++++++++++to 1.9055e-007
Heightened Def Con from 1.9055e-007 +++++++++++++++++++++++++to 1.9088e-007
Heightened Def Con from 1.9105e-007 +++++++++++to 1.9105e-007
Heightened Def Con from 1.9105e-007 to 1.91082e-007
Heightened Def Con from 1.9155e-007 ++++++++++++++++++++++++to 1.9155e-007
Heightened Def Con from 1.9155e-007 +++++++++++++++++++++++++to 1.9188e-007
Heightened Def Con from 1.9205e-007 +++++++++++to 1.9205e-007
Heightened Def Con from 1.9205e-007 to 1.92082e-007
Heightened Def Con from 1.9255e-007 ++++++++++++++++++++++++to 1.9255e-007
Heightened Def Con from 1.9255e-007 +++++++++++++++++++++++++to 1.9288e-007
Heightened Def Con from 1.9305e-007 +++++++++++to 1.9305e-007
Heightened Def Con from 1.9305e-007 to 1.93082e-007
Heightened Def Con from 1.9355e-007 ++++++++++++++++++++++++to 1.9355e-007
Heightened Def Con from 1.9355e-007 +++++++++++++++++++++++++to 1.9388e-007
Heightened Def Con from 1.9405e-007 +++++++++++to 1.9405e-007
Heightened Def Con from 1.9405e-007 to 1.94082e-007
Heightened Def Con from 1.9455e-007 ++++++++++++++++++++++++to 1.9455e-007
Heightened Def Con from 1.9455e-007 +++++++++++++++++++++++++to 1.9488e-007
Heightened Def Con from 1.9505e-007 +++++++++++to 1.9505e-007
Heightened Def Con from 1.9505e-007 to 1.95082e-007
Heightened Def Con from 1.9555e-007 ++++++++++++++++++++++++to 1.9555e-007
Heightened Def Con from 1.9555e-007 +++++++++++++++++++++++++to 1.9588e-007
Heightened Def Con from 1.9605e-007 +++++++++++to 1.9605e-007
Heightened Def Con from 1.9605e-007 to 1.96082e-007
Heightened Def Con from 1.9655e-007 ++++++++++++++++++++++++to 1.9655e-007
Heightened Def Con from 1.9655e-007 +++++++++++++++++++++++++to 1.9688e-007
Heightened Def Con from 1.9705e-007 +++++++++++to 1.9705e-007
Heightened Def Con from 1.9705e-007 to 1.97082e-007
Heightened Def Con from 1.9755e-007 ++++++++++++++++++++++++to 1.9755e-007
Heightened Def Con from 1.9755e-007 +++++++++++++++++++++++++to 1.9788e-007
Heightened Def Con from 1.9805e-007 +++++++++++to 1.9805e-007
Heightened Def Con from 1.9805e-007 to 1.98082e-007
Heightened Def Con from 1.9855e-007 ++++++++++++++++++++++++to 1.9855e-007
Heightened Def Con from 1.9855e-007 +++++++++++++++++++++++++to 1.9888e-007
Heightened Def Con from 1.9905e-007 +++++++++++to 1.9905e-007
Heightened Def Con from 1.9905e-007 to 1.99082e-007
Heightened Def Con from 1.9955e-007 ++++++++++++++++++++++++to 1.9955e-007
Heightened Def Con from 1.9955e-007 +++++++++++++++++++++++++to 1.9988e-007
Heightened Def Con from 2.0005e-007 +++++++++++to 2.0005e-007
Heightened Def Con from 2.0005e-007 to 2.00082e-007
Heightened Def Con from 2.0055e-007 ++++++++++++++++++++++++to 2.0055e-007
Heightened Def Con from 2.0055e-007 +++++++++++++++++++++++++to 2.0088e-007
Heightened Def Con from 2.0105e-007 +++++++++++to 2.0105e-007
Heightened Def Con from 2.0105e-007 to 2.01082e-007
Heightened Def Con from 2.0155e-007 ++++++++++++++++++++++++to 2.0155e-007
Heightened Def Con from 2.0155e-007 +++++++++++++++++++++++++to 2.0188e-007
Heightened Def Con from 2.0205e-007 +++++++++++to 2.0205e-007
Heightened Def Con from 2.0205e-007 to 2.02082e-007
Heightened Def Con from 2.0255e-007 ++++++++++++++++++++++++to 2.0255e-007
Heightened Def Con from 2.0255e-007 +++++++++++++++++++++++++to 2.0288e-007
Heightened Def Con from 2.0305e-007 +++++++++++to 2.0305e-007
Heightened Def Con from 2.0305e-007 to 2.03082e-007
Heightened Def Con from 2.0355e-007 ++++++++++++++++++++++++to 2.0355e-007
Heightened Def Con from 2.0355e-007 +++++++++++++++++++++++++to 2.0388e-007
Heightened Def Con from 2.0405e-007 +++++++++++to 2.0405e-007
Heightened Def Con from 2.0405e-007 to 2.04082e-007
Heightened Def Con from 2.0455e-007 ++++++++++++++++++++++++to 2.0455e-007
Heightened Def Con from 2.0455e-007 +++++++++++++++++++++++++to 2.0488e-007
Heightened Def Con from 2.0505e-007 +++++++++++to 2.0505e-007
Heightened Def Con from 2.0505e-007 to 2.05082e-007
Heightened Def Con from 2.0555e-007 ++++++++++++++++++++++++to 2.0555e-007
Heightened Def Con from 2.0555e-007 +++++++++++++++++++++++to 2.05879e-007
Heightened Def Con from 2.06051e-007 to 2.06143e-007
Heightened Def Con from 2.06547e-007 ++++++++++++++++++++++++to 2.06547e-007
Heightened Def Con from 2.07057e-007 +++++++++++++++++++++++++++to 2.07058e-007
Heightened Def Con from 2.07494e-007 to 2.07531e-007
Heightened Def Con from 2.07533e-007 to 2.07533e-007
Heightened Def Con from 2.08064e-007 +++++++++++++++++++++++++++to 2.08064e-007
Heightened Def Con from 2.08539e-007 to 2.08836e-007
Heightened Def Con from 2.09058e-007 +++++++++++++++++++++++++++to 2.09058e-007
Heightened Def Con from 2.09546e-007 to 2.09546e-007
Heightened Def Con from 2.09546e-007 ++++++++++++++++++++++++to 2.09546e-007
Heightened Def Con from 2.09987e-007 +++++++++++++++++++to 2.09987e-007
Heightened Def Con from 2.09987e-007 ++++++++++++++++++to 2.09987e-007
Heightened Def Con from 2.09987e-007 +++++++++++++++++++to 2.09987e-007
Heightened Def Con from 2.09987e-007 +++++++++++++++++++to 2.09987e-007
Heightened Def Con from 2.09987e-007 +++++++++++++++++++to 2.09987e-007
Heightened Def Con from 2.09987e-007 +++++++++++++++++++to 2.09987e-007
Heightened Def Con from 2.09987e-007 to 2.09988e-007
Heightened Def Con from 2.1005e-007 +++++++++++to 2.1005e-007
Heightened Def Con from 2.1005e-007 to 2.10082e-007
Heightened Def Con from 2.1055e-007 to 2.1055e-007
Heightened Def Con from 2.1055e-007 ++++++++++++++++++++++++to 2.1055e-007
Heightened Def Con from 2.1055e-007 +++++++++++++++++++++++++to 2.1088e-007
Heightened Def Con from 2.1105e-007 ++++++++++++to 2.1105e-007
Heightened Def Con from 2.1105e-007 to 2.11082e-007
Heightened Def Con from 2.1155e-007 to 2.1155e-007
Heightened Def Con from 2.1155e-007 ++++++++++++++++++++++++to 2.1155e-007
Heightened Def Con from 2.1155e-007 +++++++++++++++++++++++++to 2.1188e-007
Heightened Def Con from 2.1205e-007 ++++++++++++to 2.1205e-007
Heightened Def Con from 2.1205e-007 to 2.12082e-007
Heightened Def Con from 2.1255e-007 to 2.1255e-007
Heightened Def Con from 2.1255e-007 ++++++++++++++++++++++++to 2.1255e-007
Heightened Def Con from 2.1255e-007 +++++++++++++++++++++++++to 2.1288e-007
Heightened Def Con from 2.1305e-007 ++++++++++++to 2.1305e-007
Heightened Def Con from 2.1305e-007 to 2.13082e-007
Heightened Def Con from 2.1355e-007 to 2.1355e-007
Heightened Def Con from 2.1355e-007 ++++++++++++++++++++++++to 2.1355e-007
Heightened Def Con from 2.1355e-007 +++++++++++++++++++++++++to 2.1388e-007
Heightened Def Con from 2.1405e-007 ++++++++++++to 2.1405e-007
Heightened Def Con from 2.1405e-007 to 2.14082e-007
Heightened Def Con from 2.1455e-007 to 2.1455e-007
Heightened Def Con from 2.1455e-007 ++++++++++++++++++++++++to 2.1455e-007
Heightened Def Con from 2.1455e-007 +++++++++++++++++++++++++to 2.1488e-007
Heightened Def Con from 2.1505e-007 ++++++++++++to 2.1505e-007
Heightened Def Con from 2.1505e-007 to 2.15082e-007
Heightened Def Con from 2.1555e-007 to 2.1555e-007
Heightened Def Con from 2.1555e-007 ++++++++++++++++++++++++to 2.1555e-007
Heightened Def Con from 2.1555e-007 +++++++++++++++++++++++++to 2.1588e-007
Heightened Def Con from 2.1605e-007 ++++++++++++to 2.1605e-007
Heightened Def Con from 2.1605e-007 to 2.16082e-007
Heightened Def Con from 2.1655e-007 to 2.1655e-007
Heightened Def Con from 2.1655e-007 ++++++++++++++++++++++++to 2.1655e-007
Heightened Def Con from 2.1655e-007 +++++++++++++++++++++++++to 2.1688e-007
Heightened Def Con from 2.1705e-007 ++++++++++++to 2.1705e-007
Heightened Def Con from 2.1705e-007 to 2.17082e-007
Heightened Def Con from 2.1755e-007 to 2.1755e-007
Heightened Def Con from 2.1755e-007 ++++++++++++++++++++++++to 2.1755e-007
Heightened Def Con from 2.1755e-007 +++++++++++++++++++++++++to 2.1788e-007
Heightened Def Con from 2.1805e-007 ++++++++++++to 2.1805e-007
Heightened Def Con from 2.1805e-007 to 2.18082e-007
Heightened Def Con from 2.1855e-007 to 2.1855e-007
Heightened Def Con from 2.1855e-007 ++++++++++++++++++++++++to 2.1855e-007
Heightened Def Con from 2.1855e-007 +++++++++++++++++++++++++to 2.1888e-007
Heightened Def Con from 2.1905e-007 ++++++++++++to 2.1905e-007
Heightened Def Con from 2.1905e-007 to 2.19082e-007
Heightened Def Con from 2.1955e-007 to 2.1955e-007
Heightened Def Con from 2.1955e-007 ++++++++++++++++++++++++to 2.1955e-007
Heightened Def Con from 2.1955e-007 +++++++++++++++++++++++++to 2.1988e-007
Heightened Def Con from 2.2005e-007 ++++++++++++to 2.2005e-007
Heightened Def Con from 2.2005e-007 to 2.20082e-007
Heightened Def Con from 2.2055e-007 to 2.2055e-007
Heightened Def Con from 2.2055e-007 ++++++++++++++++++++++++to 2.2055e-007
Heightened Def Con from 2.2055e-007 +++++++++++++++++++++++++to 2.2088e-007
Heightened Def Con from 2.2105e-007 ++++++++++++to 2.2105e-007
Heightened Def Con from 2.2105e-007 to 2.21082e-007
Heightened Def Con from 2.2155e-007 to 2.2155e-007
Heightened Def Con from 2.2155e-007 ++++++++++++++++++++++++to 2.2155e-007
Heightened Def Con from 2.2155e-007 +++++++++++++++++++++++++to 2.2188e-007
Heightened Def Con from 2.2205e-007 ++++++++++++to 2.2205e-007
Heightened Def Con from 2.2205e-007 to 2.22082e-007
Heightened Def Con from 2.2255e-007 to 2.2255e-007
Heightened Def Con from 2.2255e-007 ++++++++++++++++++++++++to 2.2255e-007
Heightened Def Con from 2.2255e-007 +++++++++++++++++++++++++to 2.2288e-007
Heightened Def Con from 2.2305e-007 ++++++++++++to 2.2305e-007
Heightened Def Con from 2.2305e-007 to 2.23082e-007
Heightened Def Con from 2.2355e-007 to 2.2355e-007
Heightened Def Con from 2.2355e-007 ++++++++++++++++++++++++to 2.2355e-007
Heightened Def Con from 2.2355e-007 +++++++++++++++++++++++++to 2.2388e-007
Heightened Def Con from 2.2405e-007 ++++++++++++to 2.2405e-007
Heightened Def Con from 2.2405e-007 to 2.24082e-007
Heightened Def Con from 2.2455e-007 to 2.2455e-007
Heightened Def Con from 2.2455e-007 ++++++++++++++++++++++++to 2.2455e-007
Heightened Def Con from 2.2455e-007 +++++++++++++++++++++++++to 2.2488e-007
Heightened Def Con from 2.2505e-007 ++++++++++++to 2.2505e-007
Heightened Def Con from 2.2505e-007 to 2.25082e-007
Heightened Def Con from 2.2555e-007 to 2.2555e-007
Heightened Def Con from 2.2555e-007 ++++++++++++++++++++++++to 2.2555e-007
Heightened Def Con from 2.2555e-007 +++++++++++++++++++++++++to 2.2588e-007
Heightened Def Con from 2.2605e-007 ++++++++++++to 2.2605e-007
Heightened Def Con from 2.2605e-007 to 2.26082e-007
Heightened Def Con from 2.2655e-007 to 2.2655e-007
Heightened Def Con from 2.2655e-007 ++++++++++++++++++++++++to 2.2655e-007
Heightened Def Con from 2.2655e-007 ++++++++++++++